                                   MODFLOW 6
                U.S. GEOLOGICAL SURVEY MODULAR HYDROLOGIC MODEL
                          GROUNDWATER FLOW MODEL (GWF)
                  VERSION 6.5.0.dev0 (preliminary) 07/13/2023
                               ***DEVELOP MODE***

        MODFLOW 6 compiled Oct 26 2023 08:37:45 with GCC version 11.3.0

This software is preliminary or provisional and is subject to 
revision. It is being provided to meet the need for timely best 
science. The software has not received final approval by the U.S. 
Geological Survey (USGS). No warranty, expressed or implied, is made 
by the USGS or the U.S. Government as to the functionality of the 
software and related material nor shall the fact of release 
constitute any such warranty. The software is provided on the 
condition that neither the USGS nor the U.S. Government shall be held 
liable for any damages resulting from the authorized or unauthorized 
use of the software.


As a work of the United States Government, this USGS product is 
in the public domain within the United States. You can copy, 
modify, distribute, and perform the work, even for commercial 
purposes, all without asking permission. Additionally, USGS 
waives copyright and related rights in the work worldwide 
through CC0 1.0 Universal Public Domain Dedication 
(https://creativecommons.org/publicdomain/zero/1.0/).

The following GNU Lesser General Public License (LGPL) libraries
are used in this USGS product:

    SPARSKIT version 2.0
      ilut, luson, and qsplit 
      (https://www-users.cse.umn.edu/~saad/software/SPARSKIT/)

    RCM - Reverse Cuthill McKee Ordering
      (https://people.math.sc.edu/Burkardt/f_src/rcm/rcm.html)

    BLAS - Basic Linear Algebra Subprograms Level 1
      (https://people.math.sc.edu/Burkardt/f_src/blas1_d/blas1_d.html)

    SPARSEKIT - Sparse Matrix Utility Package
      amux, dperm, dvperm, rperm, and cperm
      (https://people.sc.fsu.edu/~jburkardt/f77_src/sparsekit/sparsekit.html)

The following BSD-3 License libraries are used in this USGS product:

    Modern Fortran DAG Library
      Copyright (c) 2018, Jacob Williams
      All rights reserved.
      (https://github.com/jacobwilliams/daglib)

MODFLOW 6 compiler options: -cpp -I src/libmf6core.a.p -I src -I ../src -I
src/libmf6_external.a.p -I /home/mreno/miniconda3/envs/modflow6/include -I
-fdiagnostics-color=always -imultiarch x86_64-linux-gnu -D
_FILE_OFFSET_BITS=64 -D __linux__ -D __WITH_NETCDF__ -mtune=generic
-march=x86-64 -g -O2 -Wall -Wpedantic -Wcharacter-truncation
-Wno-unused-dummy-argument -Wno-intrinsic-shadow -Wno-maybe-uninitialized
-Wno-uninitialized -std=f2008 -fall-intrinsics -fbacktrace -fcheck=all
-ffpe-trap=overflow,zero,invalid -ffpe-summary=overflow
-ffpe-trap=overflow,zero,invalid -fPIC -J src/libmf6core.a.p
-fpre-include=/usr/include/finclude/math-vector-fortran.h

System command used to initiate simulation:
/home/mreno/.clone/usgs/w/netcdf/2/modflow6/bin/mf6

MODFLOW was compiled using uniform precision.

Real Variables
  KIND: 8
  TINY (smallest non-zero value):    2.225074-308
  HUGE (largest value):    1.797693+308
  PRECISION: 15
  SIZE IN BITS: 64

Integer Variables
  KIND: 4
  HUGE (largest value): 2147483647
  SIZE IN BITS: 32

Long Integer Variables
  KIND: 8
  HUGE (largest value): 9223372036854775807
  SIZE IN BITS: 64

Logical Variables
  KIND: 4
  SIZE IN BITS: 32

 NAMEFILE OPTIONS:
    NEWTON-RAPHSON method enabled for the model.
    FLOWS WILL BE SAVED TO BUDGET FILE SPECIFIED IN OUTPUT CONTROL
 END NAMEFILE OPTIONS:

 DIS -- STRUCTURED GRID DISCRETIZATION PACKAGE, VERSION 2 : 3/27/2014 - INPUT READ FROM MEMPATH: __INPUT__/UZF_3LAY_WC_CHK/DIS                     


 NPF -- NODE PROPERTY FLOW PACKAGE, VERSION 1, 3/30/2015 INPUT READ FROM MEMPATH: __INPUT__/UZF_3LAY_WC_CHK/NPF                     

 Setting Discretization Options
 End Setting Discretization Options

 Setting Discretization Dimensions
    NLAY = 3
    NROW = 1
    NCOL = 10
 End Setting Discretization Dimensions

 Setting Discretization Griddata
    DELR set from input file
    DELC set from input file
    TOP set from input file
    BOTM set from input file
 End Setting Discretization Griddata

 Setting NPF Options
    Cell-by-cell flow information will be saved to binary file whenever ICBCFL is not zero.
 End Setting NPF Options

 Setting NPF Griddata
    ICELLTYPE set from input file
    K set from input file
    K33 set from input file
    K22 not provided.  Setting K22 = K.
 End Setting NPF Griddata


 GHB   -- GHB PACKAGE, VERSION 8, 2/22/2014 INPUT READ FROM MEMPATH: __INPUT__/UZF_3LAY_WC_CHK/GHB_0                   

 PROCESSING GHB BASE OPTIONS
    GHB FLOWS WILL BE PRINTED TO LISTING FILE.
 END OF GHB BASE OPTIONS

 PROCESSING GHB OPTIONS
 END OF GHB OPTIONS

 PROCESSING GHB BASE DIMENSIONS
    MAXBOUND =       3
 END OF GHB BASE DIMENSIONS

 UZF   -- UZF CELLS PACKAGE, VERSION 8, 2/22/2014 INPUT READ FROM UNIT 1006
 # File generated by Flopy version 3.5.0.dev0 on 10/26/2023 at 08:54:49.

 PROCESSING UZF CELLS OPTIONS
    UZF CELLS BOUNDARIES HAVE NAMES IN LAST COLUMN.
    UZF CELLS FLOWS WILL BE PRINTED TO LISTING FILE.
    FLOWS WILL BE SAVED TO BUDGET FILE SPECIFIED IN OUTPUT CONTROL

 OPENED uzf_3lay_wc_chk.uzfwc.bin
 FILE TYPE:DATA(BINARY)   UNIT 1010   STATUS:REPLACE             
 FORMAT:UNFORMATTED            ACCESS:STREAM              
 ACTION:READWRITE           

    UZF  WATER-CONTENT  WILL BE SAVED TO FILE: uzf_3lay_wc_chk.uzfwc.bin
    OPENED ON UNIT: 1010

 OPENED uzf_3lay_wc_chk.uzf.bud
 FILE TYPE:DATA(BINARY)   UNIT 1011   STATUS:REPLACE             
 FORMAT:UNFORMATTED            ACCESS:STREAM              
 ACTION:READWRITE           

    UZF  BUDGET  WILL BE SAVED TO FILE: uzf_3lay_wc_chk.uzf.bud
    OPENED ON UNIT: 1011

 OPENED uzf_3lay_wc_chk.uzf.obs
 FILE TYPE:OBS   UNIT 1012   STATUS:OLD                 
 FORMAT:FORMATTED              ACCESS:SEQUENTIAL          
 ACTION:READ                

    ET WILL BE SIMULATED WITHIN UZ AND GW ZONES, WITH LINEAR GWET IF OPTION NOT SPECIFIED OTHERWISE.
    GROUNDWATER ET FUNCTION WILL BE LINEAR.
    GROUNDWATER DISCHARGE TO LAND SURFACE WILL BE SIMULATED.
 END OF UZF CELLS OPTIONS

 PROCESSING UZF CELLS DIMENSIONS
    NUZFCELLS = 24
    NTRAILWAVES = 25
    NTRAILSETS = 80
 END OF UZF CELLS DIMENSIONS

 PROCESSING UZF CELLS PACKAGEDATA

 IC -- INITIAL CONDITIONS PACKAGE, VERSION 8, 3/28/2015 INPUT READ FROM UNIT 1004
 # File generated by Flopy version 3.5.0.dev0 on 10/26/2023 at 08:54:49.
 PROCESSING GRIDDATA

     INITIAL HEAD =  -25.00000    
 END PROCESSING GRIDDATA

 STO -- STORAGE PACKAGE, VERSION 1, 5/19/2014 INPUT READ FROM UNIT 1003


 # File generated by Flopy version 3.5.0.dev0 on 10/26/2023 at 08:54:49.
 PROCESSING STORAGE OPTIONS
 END OF STORAGE OPTIONS
 PROCESSING GRIDDATA

                 ICONVERT = 1

         SPECIFIC STORAGE =  0.1000000E-04

           SPECIFIC YIELD =  0.3000000    
 END PROCESSING GRIDDATA
    BINARY GRID INFORMATION WILL BE WRITTEN TO:
      UNIT NUMBER: 1013
      FILE NAME: uzf_3lay_wc_chk.nc.grb

 OPENED uzf_3lay_wc_chk.nc.grb
 FILE TYPE:DATA(BINARY)   UNIT 1013   STATUS:REPLACE             
 FORMAT:UNFORMATTED            ACCESS:STREAM              
 ACTION:READWRITE           

      THE LAST TIME STEP WILL BE PRINTED
      THE LAST TIME STEP WILL BE PRINTED
 # File generated by Flopy version 3.5.0.dev0 on 10/26/2023 at 08:54:49.

 PROCESSING OC OPTIONS

    BUDGET INFORMATION WILL BE WRITTEN TO:
      UNIT NUMBER: 1014
      FILE NAME: uzf_3lay_wc_chk.cbc

 OPENED uzf_3lay_wc_chk.cbc
 FILE TYPE:DATA(BINARY)   UNIT 1014   STATUS:REPLACE             
 FORMAT:UNFORMATTED            ACCESS:STREAM              
 ACTION:READWRITE           

    HEAD INFORMATION WILL BE WRITTEN TO:
      UNIT NUMBER: 1015
      FILE NAME: uzf_3lay_wc_chk.hds

 OPENED uzf_3lay_wc_chk.hds
 FILE TYPE:DATA(BINARY)   UNIT 1015   STATUS:REPLACE             
 FORMAT:UNFORMATTED            ACCESS:STREAM              
 ACTION:READWRITE           

 END OF OC OPTIONS

The observation utility is active for "UZF_0"
 # File generated by Flopy version 3.5.0.dev0 on 10/26/2023 at 08:54:49.

Processing observation options:



start timestep kper="1" kstp="1" mode="normal"


 BEGIN READING OUTPUT CONTROL FOR STRESS PERIOD 1
      ALL TIME STEPS WILL BE SAVED
      ALL TIME STEPS WILL BE SAVED
      ALL TIME STEPS WILL BE PRINTED
      ALL TIME STEPS WILL BE PRINTED

 END READING OUTPUT CONTROL FOR STRESS PERIOD 1


 PROCESSING STORAGE PERIOD DATA
 END PROCESSING STORAGE PERIOD DATA


 STRESS PERIOD 1 IS TRANSIENT

 UBDSV1 SAVING           STO-SS ON UNIT   1014 AT TIME STEP      1, STRESS PERIOD      1
 UBDSV1 SAVING           STO-SY ON UNIT   1014 AT TIME STEP      1, STRESS PERIOD      1
 UBDSV1 SAVING     FLOW-JA-FACE ON UNIT   1014 AT TIME STEP      1, STRESS PERIOD      1
 UBDSV06 SAVING              GHB IN MODEL UZF_3LAY_WC_CHK  PACKAGE UZF_3LAY_WC_CHK CONNECTED TO MODEL UZF_3LAY_WC_CHK  PACKAGE GHB_0            ON UNIT   1014 AT TIME STEP      1, STRESS PERIOD      1
 UBDSV06 SAVING        UZF-GWRCH IN MODEL UZF_3LAY_WC_CHK  PACKAGE UZF_3LAY_WC_CHK CONNECTED TO MODEL UZF_3LAY_WC_CHK  PACKAGE UZF_0            ON UNIT   1014 AT TIME STEP      1, STRESS PERIOD      1
 UBDSV06 SAVING          UZF-GWD IN MODEL UZF_3LAY_WC_CHK  PACKAGE UZF_3LAY_WC_CHK CONNECTED TO MODEL UZF_3LAY_WC_CHK  PACKAGE UZF_0            ON UNIT   1014 AT TIME STEP      1, STRESS PERIOD      1
 UBDSV06 SAVING         UZF-GWET IN MODEL UZF_3LAY_WC_CHK  PACKAGE UZF_3LAY_WC_CHK CONNECTED TO MODEL UZF_3LAY_WC_CHK  PACKAGE UZF_0            ON UNIT   1014 AT TIME STEP      1, STRESS PERIOD      1
 UBDSV06 SAVING     FLOW-JA-FACE IN MODEL UZF_3LAY_WC_CHK  PACKAGE UZF_0           CONNECTED TO MODEL UZF_3LAY_WC_CHK  PACKAGE UZF_0            ON UNIT   1011 AT TIME STEP      1, STRESS PERIOD      1
 UBDSV06 SAVING              GWF IN MODEL UZF_3LAY_WC_CHK  PACKAGE UZF_0           CONNECTED TO MODEL UZF_3LAY_WC_CHK  PACKAGE UZF_3LAY_WC_CHK  ON UNIT   1011 AT TIME STEP      1, STRESS PERIOD      1
 UBDSV06 SAVING     INFILTRATION IN MODEL UZF_3LAY_WC_CHK  PACKAGE UZF_0           CONNECTED TO MODEL UZF_3LAY_WC_CHK  PACKAGE UZF_0            ON UNIT   1011 AT TIME STEP      1, STRESS PERIOD      1
 UBDSV06 SAVING          REJ-INF IN MODEL UZF_3LAY_WC_CHK  PACKAGE UZF_0           CONNECTED TO MODEL UZF_3LAY_WC_CHK  PACKAGE UZF_0            ON UNIT   1011 AT TIME STEP      1, STRESS PERIOD      1
 UBDSV06 SAVING             UZET IN MODEL UZF_3LAY_WC_CHK  PACKAGE UZF_0           CONNECTED TO MODEL UZF_3LAY_WC_CHK  PACKAGE UZF_0            ON UNIT   1011 AT TIME STEP      1, STRESS PERIOD      1
 UBDSV06 SAVING          STORAGE IN MODEL UZF_3LAY_WC_CHK  PACKAGE UZF_0           CONNECTED TO MODEL UZF_3LAY_WC_CHK  PACKAGE UZF_0            ON UNIT   1011 AT TIME STEP      1, STRESS PERIOD      1

 GHB PACKAGE (GHB_0) FLOW RATES   PERIOD      1   STEP        1
 -----------------------------------------------
   NUMBER   CELLID                    RATE      
 -----------------------------------------------
     1      (3,1,1)              -0.74602188    
     2      (3,1,10)             -0.74602188    
 -----------------------------------------------




 UZF-GWRCH PACKAGE (UZF_0) FLOW RATES   PERIOD      1   STEP        1
 ----------------------------------------------------------------------------------------
   NUMBER   CELLID                    RATE       NAME                                    
 ----------------------------------------------------------------------------------------
     1      (1,1,2)               0.0000000      UZF01                                   
     2      (1,1,3)               0.0000000      UZF02                                   
     3      (1,1,4)               0.0000000      UZF03                                   
     4      (1,1,5)               0.0000000      UZF04                                   
     5      (1,1,6)               0.0000000      UZF05                                   
     6      (1,1,7)               0.0000000      UZF06                                   
     7      (1,1,8)               0.0000000      UZF07                                   
     8      (1,1,9)               0.0000000      UZF08                                   
     9      (2,1,2)               0.0000000      UZF09                                   
     10     (2,1,3)               0.0000000      UZF10                                   
     11     (2,1,4)               0.0000000      UZF11                                   
     12     (2,1,5)               0.0000000      UZF12                                   
     13     (2,1,6)               0.0000000      UZF13                                   
     14     (2,1,7)               0.0000000      UZF14                                   
     15     (2,1,8)               0.0000000      UZF15                                   
     16     (2,1,9)               0.0000000      UZF16                                   
     17     (3,1,2)               0.0000000      UZF17                                   
     18     (3,1,3)               0.0000000      UZF18                                   
     19     (3,1,4)               0.0000000      UZF19                                   
     20     (3,1,5)               0.0000000      UZF20                                   
     21     (3,1,6)               0.0000000      UZF21                                   
     22     (3,1,7)               0.0000000      UZF22                                   
     23     (3,1,8)               0.0000000      UZF23                                   
     24     (3,1,9)               0.0000000      UZF24                                   
 ----------------------------------------------------------------------------------------




 UZF-GWD PACKAGE (UZF_0) FLOW RATES   PERIOD      1   STEP        1
 ----------------------------------------------------------------------------------------
   NUMBER   CELLID                    RATE       NAME                                    
 ----------------------------------------------------------------------------------------
     1      (1,1,2)               0.0000000      UZF01                                   
     2      (1,1,3)               0.0000000      UZF02                                   
     3      (1,1,4)               0.0000000      UZF03                                   
     4      (1,1,5)               0.0000000      UZF04                                   
     5      (1,1,6)               0.0000000      UZF05                                   
     6      (1,1,7)               0.0000000      UZF06                                   
     7      (1,1,8)               0.0000000      UZF07                                   
     8      (1,1,9)               0.0000000      UZF08                                   
     9      (2,1,2)               -0.0000000     UZF09                                   
     10     (2,1,3)               -0.0000000     UZF10                                   
     11     (2,1,4)               -0.0000000     UZF11                                   
     12     (2,1,5)               -0.0000000     UZF12                                   
     13     (2,1,6)               -0.0000000     UZF13                                   
     14     (2,1,7)               -0.0000000     UZF14                                   
     15     (2,1,8)               -0.0000000     UZF15                                   
     16     (2,1,9)               -0.0000000     UZF16                                   
     17     (3,1,2)               -0.0000000     UZF17                                   
     18     (3,1,3)               -0.0000000     UZF18                                   
     19     (3,1,4)               -0.0000000     UZF19                                   
     20     (3,1,5)               -0.0000000     UZF20                                   
     21     (3,1,6)               -0.0000000     UZF21                                   
     22     (3,1,7)               -0.0000000     UZF22                                   
     23     (3,1,8)               -0.0000000     UZF23                                   
     24     (3,1,9)               -0.0000000     UZF24                                   
 ----------------------------------------------------------------------------------------




 UZF-GWET PACKAGE (UZF_0) FLOW RATES   PERIOD      1   STEP        1
 ----------------------------------------------------------------------------------------
   NUMBER   CELLID                    RATE       NAME                                    
 ----------------------------------------------------------------------------------------
     1      (1,1,2)               -0.0000000     UZF01                                   
     2      (1,1,3)               -0.0000000     UZF02                                   
     3      (1,1,4)               -0.0000000     UZF03                                   
     4      (1,1,5)               -0.0000000     UZF04                                   
     5      (1,1,6)               -0.0000000     UZF05                                   
     6      (1,1,7)               -0.0000000     UZF06                                   
     7      (1,1,8)               -0.0000000     UZF07                                   
     8      (1,1,9)               -0.0000000     UZF08                                   
     9      (2,1,2)               -0.0000000     UZF09                                   
     10     (2,1,3)               -0.0000000     UZF10                                   
     11     (2,1,4)               -0.0000000     UZF11                                   
     12     (2,1,5)               -0.0000000     UZF12                                   
     13     (2,1,6)               -0.0000000     UZF13                                   
     14     (2,1,7)               -0.0000000     UZF14                                   
     15     (2,1,8)               -0.0000000     UZF15                                   
     16     (2,1,9)               -0.0000000     UZF16                                   
     17     (3,1,2)               -0.0000000     UZF17                                   
     18     (3,1,3)               -0.0000000     UZF18                                   
     19     (3,1,4)               -0.0000000     UZF19                                   
     20     (3,1,5)               -0.0000000     UZF20                                   
     21     (3,1,6)               -0.0000000     UZF21                                   
     22     (3,1,7)               -0.0000000     UZF22                                   
     23     (3,1,8)               -0.0000000     UZF23                                   
     24     (3,1,9)               -0.0000000     UZF24                                   
 ----------------------------------------------------------------------------------------




 UZF_0 PACKAGE - SUMMARY OF FLOWS FOR EACH CONTROL VOLUME   PERIOD      1   STEP        1
 ----------------------------------------------------------------------------------------------------------------------------------------------------
                                                                                                                                           PERCENT   
   NUMBER   CELLID                  INFLOW      OUTFLOW        GWF      INFILTRATION   REJ INF        UZET       STORAGE      IN - OUT    DIFFERENCE 
 ----------------------------------------------------------------------------------------------------------------------------------------------------
     1      (1,1,2)               0.0000      -6.17284E-07  0.0000       0.12500      0.0000       0.0000      -0.12500      2.77556E-17  2.22045E-14
     2      (1,1,3)               0.0000      -6.17284E-07  0.0000       0.12500      0.0000       0.0000      -0.12500      2.77556E-17  2.22045E-14
     3      (1,1,4)               0.0000      -6.17284E-07  0.0000       0.12500      0.0000       0.0000      -0.12500      2.77556E-17  2.22045E-14
     4      (1,1,5)               0.0000      -6.17284E-07  0.0000       0.12500      0.0000       0.0000      -0.12500      2.77556E-17  2.22045E-14
     5      (1,1,6)               0.0000      -6.17284E-07  0.0000       0.12500      0.0000       0.0000      -0.12500      2.77556E-17  2.22045E-14
     6      (1,1,7)               0.0000      -6.17284E-07  0.0000       0.12500      0.0000       0.0000      -0.12500      2.77556E-17  2.22045E-14
     7      (1,1,8)               0.0000      -6.17284E-07  0.0000       0.12500      0.0000       0.0000      -0.12500      2.77556E-17  2.22045E-14
     8      (1,1,9)               0.0000      -6.17284E-07  0.0000       0.12500      0.0000       0.0000      -0.12500      2.77556E-17  2.22045E-14
     9      (2,1,2)               6.17284E-07 -6.17284E-07  0.0000       0.0000       0.0000       0.0000       0.0000       0.0000       0.0000     
     10     (2,1,3)               6.17284E-07 -6.17284E-07  0.0000       0.0000       0.0000       0.0000       0.0000       0.0000       0.0000     
     11     (2,1,4)               6.17284E-07 -6.17284E-07  0.0000       0.0000       0.0000       0.0000       0.0000       0.0000       0.0000     
     12     (2,1,5)               6.17284E-07 -6.17284E-07  0.0000       0.0000       0.0000       0.0000       0.0000       0.0000       0.0000     
     13     (2,1,6)               6.17284E-07 -6.17284E-07  0.0000       0.0000       0.0000       0.0000       0.0000       0.0000       0.0000     
     14     (2,1,7)               6.17284E-07 -6.17284E-07  0.0000       0.0000       0.0000       0.0000       0.0000       0.0000       0.0000     
     15     (2,1,8)               6.17284E-07 -6.17284E-07  0.0000       0.0000       0.0000       0.0000       0.0000       0.0000       0.0000     
     16     (2,1,9)               6.17284E-07 -6.17284E-07  0.0000       0.0000       0.0000       0.0000       0.0000       0.0000       0.0000     
     17     (3,1,2)               6.17284E-07  0.0000       0.0000       0.0000       0.0000       0.0000      -6.17284E-07 -4.04501E-18 -6.55291E-10
     18     (3,1,3)               6.17284E-07  0.0000       0.0000       0.0000       0.0000       0.0000      -6.17284E-07 -1.79228E-17 -2.90349E-09
     19     (3,1,4)               6.17284E-07  0.0000       0.0000       0.0000       0.0000       0.0000      -6.17284E-07 -2.48617E-17 -4.02759E-09
     20     (3,1,5)               6.17284E-07  0.0000       0.0000       0.0000       0.0000       0.0000      -6.17284E-07 -1.09839E-17 -1.77939E-09
     21     (3,1,6)               6.17284E-07  0.0000       0.0000       0.0000       0.0000       0.0000      -6.17284E-07 -1.09839E-17 -1.77939E-09
     22     (3,1,7)               6.17284E-07  0.0000       0.0000       0.0000       0.0000       0.0000      -6.17284E-07 -2.48617E-17 -4.02759E-09
     23     (3,1,8)               6.17284E-07  0.0000       0.0000       0.0000       0.0000       0.0000      -6.17284E-07 -1.79228E-17 -2.90349E-09
     24     (3,1,9)               6.17284E-07  0.0000       0.0000       0.0000       0.0000       0.0000      -6.17284E-07 -4.04501E-18 -6.55291E-10
 ----------------------------------------------------------------------------------------------------------------------------------------------------


1
  HEAD IN LAYER   1 AT END OF TIME STEP   1 IN STRESS PERIOD    1
  ---------------------------------------------------------------------------

                1               2               3               4               5               6               7               8               9              10
 ................................................................................................................................................................
   1     -25.4993        -25.4979        -25.4969        -25.4963        -25.4959        -25.4959        -25.4963        -25.4969        -25.4979        -25.4993    
1
  HEAD IN LAYER   2 AT END OF TIME STEP   1 IN STRESS PERIOD    1
  ---------------------------------------------------------------------------

                1               2               3               4               5               6               7               8               9              10
 ................................................................................................................................................................
   1     -25.4993        -25.4979        -25.4969        -25.4963        -25.4959        -25.4959        -25.4963        -25.4969        -25.4979        -25.4993    
1
  HEAD IN LAYER   3 AT END OF TIME STEP   1 IN STRESS PERIOD    1
  ---------------------------------------------------------------------------

                1               2               3               4               5               6               7               8               9              10
 ................................................................................................................................................................
   1     -25.4993        -25.4979        -25.4969        -25.4963        -25.4959        -25.4959        -25.4963        -25.4969        -25.4979        -25.4993    

 HEAD WILL BE SAVED ON UNIT 1015 AT END OF TIME STEP    1, STRESS PERIOD    1


  UZF_0 BUDGET FOR ENTIRE MODEL AT END OF TIME STEP    1, STRESS PERIOD   1
  ------------------------------------------------------------------------------

     CUMULATIVE UZF_0      L**3       RATES FOR THIS TIME STEP      L**3/T
     ------------------                 ------------------------

           IN:                                      IN:
           ---                                      ---
                 GWF =           0.0000                   GWF =           0.0000
        INFILTRATION =           1.0000          INFILTRATION =           1.0000
             REJ-INF =           0.0000               REJ-INF =           0.0000
                UZET =           0.0000                  UZET =           0.0000
             STORAGE =           0.0000               STORAGE =           0.0000

            TOTAL IN =           1.0000              TOTAL IN =           1.0000

          OUT:                                     OUT:
          ----                                     ----
                 GWF =           0.0000                   GWF =           0.0000
        INFILTRATION =           0.0000          INFILTRATION =           0.0000
             REJ-INF =           0.0000               REJ-INF =           0.0000
                UZET =           0.0000                  UZET =           0.0000
             STORAGE =           1.0000               STORAGE =           1.0000

           TOTAL OUT =           1.0000             TOTAL OUT =           1.0000

            IN - OUT =       1.1102E-16              IN - OUT =       1.1102E-16

 PERCENT DISCREPANCY =           0.00     PERCENT DISCREPANCY =           0.00



  VOLUME BUDGET FOR ENTIRE MODEL AT END OF TIME STEP    1, STRESS PERIOD   1
  ---------------------------------------------------------------------------------------------------

     CUMULATIVE VOLUME      L**3       RATES FOR THIS TIME STEP      L**3/T          PACKAGE NAME    
     ------------------                 ------------------------                     ----------------

           IN:                                      IN:
           ---                                      ---
              STO-SS =       2.3627E-04                STO-SS =       2.3627E-04     STORAGE                          
              STO-SY =           1.4918                STO-SY =           1.4918     STORAGE                          
                 GHB =           0.0000                   GHB =           0.0000     GHB_0                            
           UZF-GWRCH =           0.0000             UZF-GWRCH =           0.0000     UZF_0                            
             UZF-GWD =           0.0000               UZF-GWD =           0.0000     UZF_0                            
            UZF-GWET =           0.0000              UZF-GWET =           0.0000     UZF_0                            

            TOTAL IN =           1.4920              TOTAL IN =           1.4920

          OUT:                                     OUT:
          ----                                     ----
              STO-SS =           0.0000                STO-SS =           0.0000     STORAGE                          
              STO-SY =           0.0000                STO-SY =           0.0000     STORAGE                          
                 GHB =           1.4920                   GHB =           1.4920     GHB_0                            
           UZF-GWRCH =           0.0000             UZF-GWRCH =           0.0000     UZF_0                            
             UZF-GWD =           0.0000               UZF-GWD =           0.0000     UZF_0                            
            UZF-GWET =           0.0000              UZF-GWET =           0.0000     UZF_0                            

           TOTAL OUT =           1.4920             TOTAL OUT =           1.4920

            IN - OUT =      -1.2010E-12              IN - OUT =      -1.2010E-12

 PERCENT DISCREPANCY =          -0.00     PERCENT DISCREPANCY =          -0.00




         TIME SUMMARY AT END OF TIME STEP    1 IN STRESS PERIOD    1
                    SECONDS     MINUTES      HOURS       DAYS        YEARS
                    -----------------------------------------------------------
   TIME STEP LENGTH  86400.      1440.0      24.000      1.0000     2.73785E-03
 STRESS PERIOD TIME  86400.      1440.0      24.000      1.0000     2.73785E-03
         TOTAL TIME  86400.      1440.0      24.000      1.0000     2.73785E-03


end timestep


start timestep kper="1" kstp="2" mode="normal"

 UBDSV1 SAVING           STO-SS ON UNIT   1014 AT TIME STEP      2, STRESS PERIOD      1
 UBDSV1 SAVING           STO-SY ON UNIT   1014 AT TIME STEP      2, STRESS PERIOD      1
 UBDSV1 SAVING     FLOW-JA-FACE ON UNIT   1014 AT TIME STEP      2, STRESS PERIOD      1
 UBDSV06 SAVING              GHB IN MODEL UZF_3LAY_WC_CHK  PACKAGE UZF_3LAY_WC_CHK CONNECTED TO MODEL UZF_3LAY_WC_CHK  PACKAGE GHB_0            ON UNIT   1014 AT TIME STEP      2, STRESS PERIOD      1
 UBDSV06 SAVING        UZF-GWRCH IN MODEL UZF_3LAY_WC_CHK  PACKAGE UZF_3LAY_WC_CHK CONNECTED TO MODEL UZF_3LAY_WC_CHK  PACKAGE UZF_0            ON UNIT   1014 AT TIME STEP      2, STRESS PERIOD      1
 UBDSV06 SAVING          UZF-GWD IN MODEL UZF_3LAY_WC_CHK  PACKAGE UZF_3LAY_WC_CHK CONNECTED TO MODEL UZF_3LAY_WC_CHK  PACKAGE UZF_0            ON UNIT   1014 AT TIME STEP      2, STRESS PERIOD      1
 UBDSV06 SAVING         UZF-GWET IN MODEL UZF_3LAY_WC_CHK  PACKAGE UZF_3LAY_WC_CHK CONNECTED TO MODEL UZF_3LAY_WC_CHK  PACKAGE UZF_0            ON UNIT   1014 AT TIME STEP      2, STRESS PERIOD      1
 UBDSV06 SAVING     FLOW-JA-FACE IN MODEL UZF_3LAY_WC_CHK  PACKAGE UZF_0           CONNECTED TO MODEL UZF_3LAY_WC_CHK  PACKAGE UZF_0            ON UNIT   1011 AT TIME STEP      2, STRESS PERIOD      1
 UBDSV06 SAVING              GWF IN MODEL UZF_3LAY_WC_CHK  PACKAGE UZF_0           CONNECTED TO MODEL UZF_3LAY_WC_CHK  PACKAGE UZF_3LAY_WC_CHK  ON UNIT   1011 AT TIME STEP      2, STRESS PERIOD      1
 UBDSV06 SAVING     INFILTRATION IN MODEL UZF_3LAY_WC_CHK  PACKAGE UZF_0           CONNECTED TO MODEL UZF_3LAY_WC_CHK  PACKAGE UZF_0            ON UNIT   1011 AT TIME STEP      2, STRESS PERIOD      1
 UBDSV06 SAVING          REJ-INF IN MODEL UZF_3LAY_WC_CHK  PACKAGE UZF_0           CONNECTED TO MODEL UZF_3LAY_WC_CHK  PACKAGE UZF_0            ON UNIT   1011 AT TIME STEP      2, STRESS PERIOD      1
 UBDSV06 SAVING             UZET IN MODEL UZF_3LAY_WC_CHK  PACKAGE UZF_0           CONNECTED TO MODEL UZF_3LAY_WC_CHK  PACKAGE UZF_0            ON UNIT   1011 AT TIME STEP      2, STRESS PERIOD      1
 UBDSV06 SAVING          STORAGE IN MODEL UZF_3LAY_WC_CHK  PACKAGE UZF_0           CONNECTED TO MODEL UZF_3LAY_WC_CHK  PACKAGE UZF_0            ON UNIT   1011 AT TIME STEP      2, STRESS PERIOD      1

 GHB PACKAGE (GHB_0) FLOW RATES   PERIOD      1   STEP        2
 -----------------------------------------------
   NUMBER   CELLID                    RATE      
 -----------------------------------------------
     1      (3,1,1)              -4.07088569E-03
     2      (3,1,10)             -4.07088569E-03
 -----------------------------------------------




 UZF-GWRCH PACKAGE (UZF_0) FLOW RATES   PERIOD      1   STEP        2
 ----------------------------------------------------------------------------------------
   NUMBER   CELLID                    RATE       NAME                                    
 ----------------------------------------------------------------------------------------
     1      (1,1,2)               0.0000000      UZF01                                   
     2      (1,1,3)               0.0000000      UZF02                                   
     3      (1,1,4)               0.0000000      UZF03                                   
     4      (1,1,5)               0.0000000      UZF04                                   
     5      (1,1,6)               0.0000000      UZF05                                   
     6      (1,1,7)               0.0000000      UZF06                                   
     7      (1,1,8)               0.0000000      UZF07                                   
     8      (1,1,9)               0.0000000      UZF08                                   
     9      (2,1,2)               0.0000000      UZF09                                   
     10     (2,1,3)               0.0000000      UZF10                                   
     11     (2,1,4)               0.0000000      UZF11                                   
     12     (2,1,5)               0.0000000      UZF12                                   
     13     (2,1,6)               0.0000000      UZF13                                   
     14     (2,1,7)               0.0000000      UZF14                                   
     15     (2,1,8)               0.0000000      UZF15                                   
     16     (2,1,9)               0.0000000      UZF16                                   
     17     (3,1,2)               0.0000000      UZF17                                   
     18     (3,1,3)               0.0000000      UZF18                                   
     19     (3,1,4)               0.0000000      UZF19                                   
     20     (3,1,5)               0.0000000      UZF20                                   
     21     (3,1,6)               0.0000000      UZF21                                   
     22     (3,1,7)               0.0000000      UZF22                                   
     23     (3,1,8)               0.0000000      UZF23                                   
     24     (3,1,9)               0.0000000      UZF24                                   
 ----------------------------------------------------------------------------------------




 UZF-GWD PACKAGE (UZF_0) FLOW RATES   PERIOD      1   STEP        2
 ----------------------------------------------------------------------------------------
   NUMBER   CELLID                    RATE       NAME                                    
 ----------------------------------------------------------------------------------------
     1      (1,1,2)               0.0000000      UZF01                                   
     2      (1,1,3)               0.0000000      UZF02                                   
     3      (1,1,4)               0.0000000      UZF03                                   
     4      (1,1,5)               0.0000000      UZF04                                   
     5      (1,1,6)               0.0000000      UZF05                                   
     6      (1,1,7)               0.0000000      UZF06                                   
     7      (1,1,8)               0.0000000      UZF07                                   
     8      (1,1,9)               0.0000000      UZF08                                   
     9      (2,1,2)               -0.0000000     UZF09                                   
     10     (2,1,3)               -0.0000000     UZF10                                   
     11     (2,1,4)               -0.0000000     UZF11                                   
     12     (2,1,5)               -0.0000000     UZF12                                   
     13     (2,1,6)               -0.0000000     UZF13                                   
     14     (2,1,7)               -0.0000000     UZF14                                   
     15     (2,1,8)               -0.0000000     UZF15                                   
     16     (2,1,9)               -0.0000000     UZF16                                   
     17     (3,1,2)               -0.0000000     UZF17                                   
     18     (3,1,3)               -0.0000000     UZF18                                   
     19     (3,1,4)               -0.0000000     UZF19                                   
     20     (3,1,5)               -0.0000000     UZF20                                   
     21     (3,1,6)               -0.0000000     UZF21                                   
     22     (3,1,7)               -0.0000000     UZF22                                   
     23     (3,1,8)               -0.0000000     UZF23                                   
     24     (3,1,9)               -0.0000000     UZF24                                   
 ----------------------------------------------------------------------------------------




 UZF-GWET PACKAGE (UZF_0) FLOW RATES   PERIOD      1   STEP        2
 ----------------------------------------------------------------------------------------
   NUMBER   CELLID                    RATE       NAME                                    
 ----------------------------------------------------------------------------------------
     1      (1,1,2)               -0.0000000     UZF01                                   
     2      (1,1,3)               -0.0000000     UZF02                                   
     3      (1,1,4)               -0.0000000     UZF03                                   
     4      (1,1,5)               -0.0000000     UZF04                                   
     5      (1,1,6)               -0.0000000     UZF05                                   
     6      (1,1,7)               -0.0000000     UZF06                                   
     7      (1,1,8)               -0.0000000     UZF07                                   
     8      (1,1,9)               -0.0000000     UZF08                                   
     9      (2,1,2)               -0.0000000     UZF09                                   
     10     (2,1,3)               -0.0000000     UZF10                                   
     11     (2,1,4)               -0.0000000     UZF11                                   
     12     (2,1,5)               -0.0000000     UZF12                                   
     13     (2,1,6)               -0.0000000     UZF13                                   
     14     (2,1,7)               -0.0000000     UZF14                                   
     15     (2,1,8)               -0.0000000     UZF15                                   
     16     (2,1,9)               -0.0000000     UZF16                                   
     17     (3,1,2)               -0.0000000     UZF17                                   
     18     (3,1,3)               -0.0000000     UZF18                                   
     19     (3,1,4)               -0.0000000     UZF19                                   
     20     (3,1,5)               -0.0000000     UZF20                                   
     21     (3,1,6)               -0.0000000     UZF21                                   
     22     (3,1,7)               -0.0000000     UZF22                                   
     23     (3,1,8)               -0.0000000     UZF23                                   
     24     (3,1,9)               -0.0000000     UZF24                                   
 ----------------------------------------------------------------------------------------




 UZF_0 PACKAGE - SUMMARY OF FLOWS FOR EACH CONTROL VOLUME   PERIOD      1   STEP        2
 ----------------------------------------------------------------------------------------------------------------------------------------------------
                                                                                                                                           PERCENT   
   NUMBER   CELLID                  INFLOW      OUTFLOW        GWF      INFILTRATION   REJ INF        UZET       STORAGE      IN - OUT    DIFFERENCE 
 ----------------------------------------------------------------------------------------------------------------------------------------------------
     1      (1,1,2)               0.0000      -6.17284E-07  0.0000       0.12500      0.0000       0.0000      -0.12500     -2.77556E-17 -2.22045E-14
     2      (1,1,3)               0.0000      -6.17284E-07  0.0000       0.12500      0.0000       0.0000      -0.12500     -2.77556E-17 -2.22045E-14
     3      (1,1,4)               0.0000      -6.17284E-07  0.0000       0.12500      0.0000       0.0000      -0.12500     -2.77556E-17 -2.22045E-14
     4      (1,1,5)               0.0000      -6.17284E-07  0.0000       0.12500      0.0000       0.0000      -0.12500     -2.77556E-17 -2.22045E-14
     5      (1,1,6)               0.0000      -6.17284E-07  0.0000       0.12500      0.0000       0.0000      -0.12500     -2.77556E-17 -2.22045E-14
     6      (1,1,7)               0.0000      -6.17284E-07  0.0000       0.12500      0.0000       0.0000      -0.12500     -2.77556E-17 -2.22045E-14
     7      (1,1,8)               0.0000      -6.17284E-07  0.0000       0.12500      0.0000       0.0000      -0.12500     -2.77556E-17 -2.22045E-14
     8      (1,1,9)               0.0000      -6.17284E-07  0.0000       0.12500      0.0000       0.0000      -0.12500     -2.77556E-17 -2.22045E-14
     9      (2,1,2)               6.17284E-07 -6.17284E-07  0.0000       0.0000       0.0000       0.0000       0.0000       0.0000       0.0000     
     10     (2,1,3)               6.17284E-07 -6.17284E-07  0.0000       0.0000       0.0000       0.0000       0.0000       0.0000       0.0000     
     11     (2,1,4)               6.17284E-07 -6.17284E-07  0.0000       0.0000       0.0000       0.0000       0.0000       0.0000       0.0000     
     12     (2,1,5)               6.17284E-07 -6.17284E-07  0.0000       0.0000       0.0000       0.0000       0.0000       0.0000       0.0000     
     13     (2,1,6)               6.17284E-07 -6.17284E-07  0.0000       0.0000       0.0000       0.0000       0.0000       0.0000       0.0000     
     14     (2,1,7)               6.17284E-07 -6.17284E-07  0.0000       0.0000       0.0000       0.0000       0.0000       0.0000       0.0000     
     15     (2,1,8)               6.17284E-07 -6.17284E-07  0.0000       0.0000       0.0000       0.0000       0.0000       0.0000       0.0000     
     16     (2,1,9)               6.17284E-07 -6.17284E-07  0.0000       0.0000       0.0000       0.0000       0.0000       0.0000       0.0000     
     17     (3,1,2)               6.17284E-07  0.0000       0.0000       0.0000       0.0000       0.0000      -6.17284E-07 -1.79228E-17 -2.90349E-09
     18     (3,1,3)               6.17284E-07  0.0000       0.0000       0.0000       0.0000       0.0000      -6.17284E-07  9.83278E-18  1.59291E-09
     19     (3,1,4)               6.17284E-07  0.0000       0.0000       0.0000       0.0000       0.0000      -6.17284E-07  1.67717E-17  2.71701E-09
     20     (3,1,5)               6.17284E-07  0.0000       0.0000       0.0000       0.0000       0.0000      -6.17284E-07 -4.04501E-18 -6.55291E-10
     21     (3,1,6)               6.17284E-07  0.0000       0.0000       0.0000       0.0000       0.0000      -6.17284E-07 -4.04501E-18 -6.55291E-10
     22     (3,1,7)               6.17284E-07  0.0000       0.0000       0.0000       0.0000       0.0000      -6.17284E-07  1.67717E-17  2.71701E-09
     23     (3,1,8)               6.17284E-07  0.0000       0.0000       0.0000       0.0000       0.0000      -6.17284E-07  9.83278E-18  1.59291E-09
     24     (3,1,9)               6.17284E-07  0.0000       0.0000       0.0000       0.0000       0.0000      -6.17284E-07 -1.79228E-17 -2.90349E-09
 ----------------------------------------------------------------------------------------------------------------------------------------------------


1
  HEAD IN LAYER   1 AT END OF TIME STEP   2 IN STRESS PERIOD    1
  ---------------------------------------------------------------------------

                1               2               3               4               5               6               7               8               9              10
 ................................................................................................................................................................
   1     -25.5000        -25.5000        -25.5000        -25.5000        -25.5000        -25.5000        -25.5000        -25.5000        -25.5000        -25.5000    
1
  HEAD IN LAYER   2 AT END OF TIME STEP   2 IN STRESS PERIOD    1
  ---------------------------------------------------------------------------

                1               2               3               4               5               6               7               8               9              10
 ................................................................................................................................................................
   1     -25.5000        -25.5000        -25.5000        -25.5000        -25.5000        -25.5000        -25.5000        -25.5000        -25.5000        -25.5000    
1
  HEAD IN LAYER   3 AT END OF TIME STEP   2 IN STRESS PERIOD    1
  ---------------------------------------------------------------------------

                1               2               3               4               5               6               7               8               9              10
 ................................................................................................................................................................
   1     -25.5000        -25.5000        -25.5000        -25.5000        -25.5000        -25.5000        -25.5000        -25.5000        -25.5000        -25.5000    

 HEAD WILL BE SAVED ON UNIT 1015 AT END OF TIME STEP    2, STRESS PERIOD    1


  UZF_0 BUDGET FOR ENTIRE MODEL AT END OF TIME STEP    2, STRESS PERIOD   1
  ------------------------------------------------------------------------------

     CUMULATIVE UZF_0      L**3       RATES FOR THIS TIME STEP      L**3/T
     ------------------                 ------------------------

           IN:                                      IN:
           ---                                      ---
                 GWF =           0.0000                   GWF =           0.0000
        INFILTRATION =           2.0000          INFILTRATION =           1.0000
             REJ-INF =           0.0000               REJ-INF =           0.0000
                UZET =           0.0000                  UZET =           0.0000
             STORAGE =           0.0000               STORAGE =           0.0000

            TOTAL IN =           2.0000              TOTAL IN =           1.0000

          OUT:                                     OUT:
          ----                                     ----
                 GWF =           0.0000                   GWF =           0.0000
        INFILTRATION =           0.0000          INFILTRATION =           0.0000
             REJ-INF =           0.0000               REJ-INF =           0.0000
                UZET =           0.0000                  UZET =           0.0000
             STORAGE =           2.0000               STORAGE =           1.0000

           TOTAL OUT =           2.0000             TOTAL OUT =           1.0000

            IN - OUT =           0.0000              IN - OUT =      -2.2204E-16

 PERCENT DISCREPANCY =           0.00     PERCENT DISCREPANCY =          -0.00



  VOLUME BUDGET FOR ENTIRE MODEL AT END OF TIME STEP    2, STRESS PERIOD   1
  ---------------------------------------------------------------------------------------------------

     CUMULATIVE VOLUME      L**3       RATES FOR THIS TIME STEP      L**3/T          PACKAGE NAME    
     ------------------                 ------------------------                     ----------------

           IN:                                      IN:
           ---                                      ---
              STO-SS =       2.3749E-04                STO-SS =       1.2215E-06     STORAGE                          
              STO-SY =           1.4999                STO-SY =       8.1406E-03     STORAGE                          
                 GHB =           0.0000                   GHB =           0.0000     GHB_0                            
           UZF-GWRCH =           0.0000             UZF-GWRCH =           0.0000     UZF_0                            
             UZF-GWD =           0.0000               UZF-GWD =           0.0000     UZF_0                            
            UZF-GWET =           0.0000              UZF-GWET =           0.0000     UZF_0                            

            TOTAL IN =           1.5002              TOTAL IN =       8.1418E-03

          OUT:                                     OUT:
          ----                                     ----
              STO-SS =           0.0000                STO-SS =           0.0000     STORAGE                          
              STO-SY =           0.0000                STO-SY =           0.0000     STORAGE                          
                 GHB =           1.5002                   GHB =       8.1418E-03     GHB_0                            
           UZF-GWRCH =           0.0000             UZF-GWRCH =           0.0000     UZF_0                            
             UZF-GWD =           0.0000               UZF-GWD =           0.0000     UZF_0                            
            UZF-GWET =           0.0000              UZF-GWET =           0.0000     UZF_0                            

           TOTAL OUT =           1.5002             TOTAL OUT =       8.1418E-03

            IN - OUT =       5.4084E-10              IN - OUT =       5.4204E-10

 PERCENT DISCREPANCY =           0.00     PERCENT DISCREPANCY =           0.00




         TIME SUMMARY AT END OF TIME STEP    2 IN STRESS PERIOD    1
                    SECONDS     MINUTES      HOURS       DAYS        YEARS
                    -----------------------------------------------------------
   TIME STEP LENGTH  86400.      1440.0      24.000      1.0000     2.73785E-03
 STRESS PERIOD TIME 1.72800E+05  2880.0      48.000      2.0000     5.47570E-03
         TOTAL TIME 1.72800E+05  2880.0      48.000      2.0000     5.47570E-03


end timestep


start timestep kper="1" kstp="3" mode="normal"

 UBDSV1 SAVING           STO-SS ON UNIT   1014 AT TIME STEP      3, STRESS PERIOD      1
 UBDSV1 SAVING           STO-SY ON UNIT   1014 AT TIME STEP      3, STRESS PERIOD      1
 UBDSV1 SAVING     FLOW-JA-FACE ON UNIT   1014 AT TIME STEP      3, STRESS PERIOD      1
 UBDSV06 SAVING              GHB IN MODEL UZF_3LAY_WC_CHK  PACKAGE UZF_3LAY_WC_CHK CONNECTED TO MODEL UZF_3LAY_WC_CHK  PACKAGE GHB_0            ON UNIT   1014 AT TIME STEP      3, STRESS PERIOD      1
 UBDSV06 SAVING        UZF-GWRCH IN MODEL UZF_3LAY_WC_CHK  PACKAGE UZF_3LAY_WC_CHK CONNECTED TO MODEL UZF_3LAY_WC_CHK  PACKAGE UZF_0            ON UNIT   1014 AT TIME STEP      3, STRESS PERIOD      1
 UBDSV06 SAVING          UZF-GWD IN MODEL UZF_3LAY_WC_CHK  PACKAGE UZF_3LAY_WC_CHK CONNECTED TO MODEL UZF_3LAY_WC_CHK  PACKAGE UZF_0            ON UNIT   1014 AT TIME STEP      3, STRESS PERIOD      1
 UBDSV06 SAVING         UZF-GWET IN MODEL UZF_3LAY_WC_CHK  PACKAGE UZF_3LAY_WC_CHK CONNECTED TO MODEL UZF_3LAY_WC_CHK  PACKAGE UZF_0            ON UNIT   1014 AT TIME STEP      3, STRESS PERIOD      1
 UBDSV06 SAVING     FLOW-JA-FACE IN MODEL UZF_3LAY_WC_CHK  PACKAGE UZF_0           CONNECTED TO MODEL UZF_3LAY_WC_CHK  PACKAGE UZF_0            ON UNIT   1011 AT TIME STEP      3, STRESS PERIOD      1
 UBDSV06 SAVING              GWF IN MODEL UZF_3LAY_WC_CHK  PACKAGE UZF_0           CONNECTED TO MODEL UZF_3LAY_WC_CHK  PACKAGE UZF_3LAY_WC_CHK  ON UNIT   1011 AT TIME STEP      3, STRESS PERIOD      1
 UBDSV06 SAVING     INFILTRATION IN MODEL UZF_3LAY_WC_CHK  PACKAGE UZF_0           CONNECTED TO MODEL UZF_3LAY_WC_CHK  PACKAGE UZF_0            ON UNIT   1011 AT TIME STEP      3, STRESS PERIOD      1
 UBDSV06 SAVING          REJ-INF IN MODEL UZF_3LAY_WC_CHK  PACKAGE UZF_0           CONNECTED TO MODEL UZF_3LAY_WC_CHK  PACKAGE UZF_0            ON UNIT   1011 AT TIME STEP      3, STRESS PERIOD      1
 UBDSV06 SAVING             UZET IN MODEL UZF_3LAY_WC_CHK  PACKAGE UZF_0           CONNECTED TO MODEL UZF_3LAY_WC_CHK  PACKAGE UZF_0            ON UNIT   1011 AT TIME STEP      3, STRESS PERIOD      1
 UBDSV06 SAVING          STORAGE IN MODEL UZF_3LAY_WC_CHK  PACKAGE UZF_0           CONNECTED TO MODEL UZF_3LAY_WC_CHK  PACKAGE UZF_0            ON UNIT   1011 AT TIME STEP      3, STRESS PERIOD      1

 GHB PACKAGE (GHB_0) FLOW RATES   PERIOD      1   STEP        3
 -----------------------------------------------
   NUMBER   CELLID                    RATE      
 -----------------------------------------------
     1      (3,1,1)              -2.65529561E-05
     2      (3,1,10)             -2.65529561E-05
 -----------------------------------------------




 UZF-GWRCH PACKAGE (UZF_0) FLOW RATES   PERIOD      1   STEP        3
 ----------------------------------------------------------------------------------------
   NUMBER   CELLID                    RATE       NAME                                    
 ----------------------------------------------------------------------------------------
     1      (1,1,2)               0.0000000      UZF01                                   
     2      (1,1,3)               0.0000000      UZF02                                   
     3      (1,1,4)               0.0000000      UZF03                                   
     4      (1,1,5)               0.0000000      UZF04                                   
     5      (1,1,6)               0.0000000      UZF05                                   
     6      (1,1,7)               0.0000000      UZF06                                   
     7      (1,1,8)               0.0000000      UZF07                                   
     8      (1,1,9)               0.0000000      UZF08                                   
     9      (2,1,2)               0.0000000      UZF09                                   
     10     (2,1,3)               0.0000000      UZF10                                   
     11     (2,1,4)               0.0000000      UZF11                                   
     12     (2,1,5)               0.0000000      UZF12                                   
     13     (2,1,6)               0.0000000      UZF13                                   
     14     (2,1,7)               0.0000000      UZF14                                   
     15     (2,1,8)               0.0000000      UZF15                                   
     16     (2,1,9)               0.0000000      UZF16                                   
     17     (3,1,2)               0.0000000      UZF17                                   
     18     (3,1,3)               0.0000000      UZF18                                   
     19     (3,1,4)               0.0000000      UZF19                                   
     20     (3,1,5)               0.0000000      UZF20                                   
     21     (3,1,6)               0.0000000      UZF21                                   
     22     (3,1,7)               0.0000000      UZF22                                   
     23     (3,1,8)               0.0000000      UZF23                                   
     24     (3,1,9)               0.0000000      UZF24                                   
 ----------------------------------------------------------------------------------------




 UZF-GWD PACKAGE (UZF_0) FLOW RATES   PERIOD      1   STEP        3
 ----------------------------------------------------------------------------------------
   NUMBER   CELLID                    RATE       NAME                                    
 ----------------------------------------------------------------------------------------
     1      (1,1,2)               0.0000000      UZF01                                   
     2      (1,1,3)               0.0000000      UZF02                                   
     3      (1,1,4)               0.0000000      UZF03                                   
     4      (1,1,5)               0.0000000      UZF04                                   
     5      (1,1,6)               0.0000000      UZF05                                   
     6      (1,1,7)               0.0000000      UZF06                                   
     7      (1,1,8)               0.0000000      UZF07                                   
     8      (1,1,9)               0.0000000      UZF08                                   
     9      (2,1,2)               -0.0000000     UZF09                                   
     10     (2,1,3)               -0.0000000     UZF10                                   
     11     (2,1,4)               -0.0000000     UZF11                                   
     12     (2,1,5)               -0.0000000     UZF12                                   
     13     (2,1,6)               -0.0000000     UZF13                                   
     14     (2,1,7)               -0.0000000     UZF14                                   
     15     (2,1,8)               -0.0000000     UZF15                                   
     16     (2,1,9)               -0.0000000     UZF16                                   
     17     (3,1,2)               -0.0000000     UZF17                                   
     18     (3,1,3)               -0.0000000     UZF18                                   
     19     (3,1,4)               -0.0000000     UZF19                                   
     20     (3,1,5)               -0.0000000     UZF20                                   
     21     (3,1,6)               -0.0000000     UZF21                                   
     22     (3,1,7)               -0.0000000     UZF22                                   
     23     (3,1,8)               -0.0000000     UZF23                                   
     24     (3,1,9)               -0.0000000     UZF24                                   
 ----------------------------------------------------------------------------------------




 UZF-GWET PACKAGE (UZF_0) FLOW RATES   PERIOD      1   STEP        3
 ----------------------------------------------------------------------------------------
   NUMBER   CELLID                    RATE       NAME                                    
 ----------------------------------------------------------------------------------------
     1      (1,1,2)               -0.0000000     UZF01                                   
     2      (1,1,3)               -0.0000000     UZF02                                   
     3      (1,1,4)               -0.0000000     UZF03                                   
     4      (1,1,5)               -0.0000000     UZF04                                   
     5      (1,1,6)               -0.0000000     UZF05                                   
     6      (1,1,7)               -0.0000000     UZF06                                   
     7      (1,1,8)               -0.0000000     UZF07                                   
     8      (1,1,9)               -0.0000000     UZF08                                   
     9      (2,1,2)               -0.0000000     UZF09                                   
     10     (2,1,3)               -0.0000000     UZF10                                   
     11     (2,1,4)               -0.0000000     UZF11                                   
     12     (2,1,5)               -0.0000000     UZF12                                   
     13     (2,1,6)               -0.0000000     UZF13                                   
     14     (2,1,7)               -0.0000000     UZF14                                   
     15     (2,1,8)               -0.0000000     UZF15                                   
     16     (2,1,9)               -0.0000000     UZF16                                   
     17     (3,1,2)               -0.0000000     UZF17                                   
     18     (3,1,3)               -0.0000000     UZF18                                   
     19     (3,1,4)               -0.0000000     UZF19                                   
     20     (3,1,5)               -0.0000000     UZF20                                   
     21     (3,1,6)               -0.0000000     UZF21                                   
     22     (3,1,7)               -0.0000000     UZF22                                   
     23     (3,1,8)               -0.0000000     UZF23                                   
     24     (3,1,9)               -0.0000000     UZF24                                   
 ----------------------------------------------------------------------------------------




 UZF_0 PACKAGE - SUMMARY OF FLOWS FOR EACH CONTROL VOLUME   PERIOD      1   STEP        3
 ----------------------------------------------------------------------------------------------------------------------------------------------------
                                                                                                                                           PERCENT   
   NUMBER   CELLID                  INFLOW      OUTFLOW        GWF      INFILTRATION   REJ INF        UZET       STORAGE      IN - OUT    DIFFERENCE 
 ----------------------------------------------------------------------------------------------------------------------------------------------------
     1      (1,1,2)               0.0000      -6.17284E-07  0.0000       0.12500      0.0000       0.0000      -0.12500      1.11022E-16  8.88178E-14
     2      (1,1,3)               0.0000      -6.17284E-07  0.0000       0.12500      0.0000       0.0000      -0.12500      1.11022E-16  8.88178E-14
     3      (1,1,4)               0.0000      -6.17284E-07  0.0000       0.12500      0.0000       0.0000      -0.12500      1.11022E-16  8.88178E-14
     4      (1,1,5)               0.0000      -6.17284E-07  0.0000       0.12500      0.0000       0.0000      -0.12500      1.11022E-16  8.88178E-14
     5      (1,1,6)               0.0000      -6.17284E-07  0.0000       0.12500      0.0000       0.0000      -0.12500      1.11022E-16  8.88178E-14
     6      (1,1,7)               0.0000      -6.17284E-07  0.0000       0.12500      0.0000       0.0000      -0.12500      1.11022E-16  8.88178E-14
     7      (1,1,8)               0.0000      -6.17284E-07  0.0000       0.12500      0.0000       0.0000      -0.12500      1.11022E-16  8.88178E-14
     8      (1,1,9)               0.0000      -6.17284E-07  0.0000       0.12500      0.0000       0.0000      -0.12500      1.11022E-16  8.88178E-14
     9      (2,1,2)               6.17284E-07 -6.17284E-07  0.0000       0.0000       0.0000       0.0000       0.0000       0.0000       0.0000     
     10     (2,1,3)               6.17284E-07 -6.17284E-07  0.0000       0.0000       0.0000       0.0000       0.0000       0.0000       0.0000     
     11     (2,1,4)               6.17284E-07 -6.17284E-07  0.0000       0.0000       0.0000       0.0000       0.0000       0.0000       0.0000     
     12     (2,1,5)               6.17284E-07 -6.17284E-07  0.0000       0.0000       0.0000       0.0000       0.0000       0.0000       0.0000     
     13     (2,1,6)               6.17284E-07 -6.17284E-07  0.0000       0.0000       0.0000       0.0000       0.0000       0.0000       0.0000     
     14     (2,1,7)               6.17284E-07 -6.17284E-07  0.0000       0.0000       0.0000       0.0000       0.0000       0.0000       0.0000     
     15     (2,1,8)               6.17284E-07 -6.17284E-07  0.0000       0.0000       0.0000       0.0000       0.0000       0.0000       0.0000     
     16     (2,1,9)               6.17284E-07 -6.17284E-07  0.0000       0.0000       0.0000       0.0000       0.0000       0.0000       0.0000     
     17     (3,1,2)               6.17284E-07  0.0000       0.0000       0.0000       0.0000       0.0000      -6.17284E-07  9.83278E-18  1.59291E-09
     18     (3,1,3)               6.17284E-07  0.0000       0.0000       0.0000       0.0000       0.0000      -6.17284E-07 -1.09839E-17 -1.77939E-09
     19     (3,1,4)               6.17284E-07  0.0000       0.0000       0.0000       0.0000       0.0000      -6.17284E-07 -4.04501E-18 -6.55291E-10
     20     (3,1,5)               6.17284E-07  0.0000       0.0000       0.0000       0.0000       0.0000      -6.17284E-07 -1.79228E-17 -2.90349E-09
     21     (3,1,6)               6.17284E-07  0.0000       0.0000       0.0000       0.0000       0.0000      -6.17284E-07 -1.79228E-17 -2.90349E-09
     22     (3,1,7)               6.17284E-07  0.0000       0.0000       0.0000       0.0000       0.0000      -6.17284E-07 -4.04501E-18 -6.55291E-10
     23     (3,1,8)               6.17284E-07  0.0000       0.0000       0.0000       0.0000       0.0000      -6.17284E-07 -1.09839E-17 -1.77939E-09
     24     (3,1,9)               6.17284E-07  0.0000       0.0000       0.0000       0.0000       0.0000      -6.17284E-07  9.83278E-18  1.59291E-09
 ----------------------------------------------------------------------------------------------------------------------------------------------------


1
  HEAD IN LAYER   1 AT END OF TIME STEP   3 IN STRESS PERIOD    1
  ---------------------------------------------------------------------------

                1               2               3               4               5               6               7               8               9              10
 ................................................................................................................................................................
   1     -25.5000        -25.5000        -25.5000        -25.5000        -25.5000        -25.5000        -25.5000        -25.5000        -25.5000        -25.5000    
1
  HEAD IN LAYER   2 AT END OF TIME STEP   3 IN STRESS PERIOD    1
  ---------------------------------------------------------------------------

                1               2               3               4               5               6               7               8               9              10
 ................................................................................................................................................................
   1     -25.5000        -25.5000        -25.5000        -25.5000        -25.5000        -25.5000        -25.5000        -25.5000        -25.5000        -25.5000    
1
  HEAD IN LAYER   3 AT END OF TIME STEP   3 IN STRESS PERIOD    1
  ---------------------------------------------------------------------------

                1               2               3               4               5               6               7               8               9              10
 ................................................................................................................................................................
   1     -25.5000        -25.5000        -25.5000        -25.5000        -25.5000        -25.5000        -25.5000        -25.5000        -25.5000        -25.5000    

 HEAD WILL BE SAVED ON UNIT 1015 AT END OF TIME STEP    3, STRESS PERIOD    1


  UZF_0 BUDGET FOR ENTIRE MODEL AT END OF TIME STEP    3, STRESS PERIOD   1
  ------------------------------------------------------------------------------

     CUMULATIVE UZF_0      L**3       RATES FOR THIS TIME STEP      L**3/T
     ------------------                 ------------------------

           IN:                                      IN:
           ---                                      ---
                 GWF =           0.0000                   GWF =           0.0000
        INFILTRATION =           3.0000          INFILTRATION =           1.0000
             REJ-INF =           0.0000               REJ-INF =           0.0000
                UZET =           0.0000                  UZET =           0.0000
             STORAGE =           0.0000               STORAGE =           0.0000

            TOTAL IN =           3.0000              TOTAL IN =           1.0000

          OUT:                                     OUT:
          ----                                     ----
                 GWF =           0.0000                   GWF =           0.0000
        INFILTRATION =           0.0000          INFILTRATION =           0.0000
             REJ-INF =           0.0000               REJ-INF =           0.0000
                UZET =           0.0000                  UZET =           0.0000
             STORAGE =           3.0000               STORAGE =           1.0000

           TOTAL OUT =           3.0000             TOTAL OUT =           1.0000

            IN - OUT =       8.8818E-16              IN - OUT =       8.8818E-16

 PERCENT DISCREPANCY =           0.00     PERCENT DISCREPANCY =           0.00



  VOLUME BUDGET FOR ENTIRE MODEL AT END OF TIME STEP    3, STRESS PERIOD   1
  ---------------------------------------------------------------------------------------------------

     CUMULATIVE VOLUME      L**3       RATES FOR THIS TIME STEP      L**3/T          PACKAGE NAME    
     ------------------                 ------------------------                     ----------------

           IN:                                      IN:
           ---                                      ---
              STO-SS =       2.3750E-04                STO-SS =       7.9647E-09     STORAGE                          
              STO-SY =           1.5000                STO-SY =       5.3098E-05     STORAGE                          
                 GHB =           0.0000                   GHB =           0.0000     GHB_0                            
           UZF-GWRCH =           0.0000             UZF-GWRCH =           0.0000     UZF_0                            
             UZF-GWD =           0.0000               UZF-GWD =           0.0000     UZF_0                            
            UZF-GWET =           0.0000              UZF-GWET =           0.0000     UZF_0                            

            TOTAL IN =           1.5002              TOTAL IN =       5.3106E-05

          OUT:                                     OUT:
          ----                                     ----
              STO-SS =           0.0000                STO-SS =           0.0000     STORAGE                          
              STO-SY =           0.0000                STO-SY =           0.0000     STORAGE                          
                 GHB =           1.5002                   GHB =       5.3106E-05     GHB_0                            
           UZF-GWRCH =           0.0000             UZF-GWRCH =           0.0000     UZF_0                            
             UZF-GWD =           0.0000               UZF-GWD =           0.0000     UZF_0                            
            UZF-GWET =           0.0000              UZF-GWET =           0.0000     UZF_0                            

           TOTAL OUT =           1.5002             TOTAL OUT =       5.3106E-05

            IN - OUT =       5.3101E-10              IN - OUT =      -9.8228E-12

 PERCENT DISCREPANCY =           0.00     PERCENT DISCREPANCY =          -0.00




         TIME SUMMARY AT END OF TIME STEP    3 IN STRESS PERIOD    1
                    SECONDS     MINUTES      HOURS       DAYS        YEARS
                    -----------------------------------------------------------
   TIME STEP LENGTH  86400.      1440.0      24.000      1.0000     2.73785E-03
 STRESS PERIOD TIME 2.59200E+05  4320.0      72.000      3.0000     8.21355E-03
         TOTAL TIME 2.59200E+05  4320.0      72.000      3.0000     8.21355E-03


end timestep


start timestep kper="1" kstp="4" mode="normal"

 UBDSV1 SAVING           STO-SS ON UNIT   1014 AT TIME STEP      4, STRESS PERIOD      1
 UBDSV1 SAVING           STO-SY ON UNIT   1014 AT TIME STEP      4, STRESS PERIOD      1
 UBDSV1 SAVING     FLOW-JA-FACE ON UNIT   1014 AT TIME STEP      4, STRESS PERIOD      1
 UBDSV06 SAVING              GHB IN MODEL UZF_3LAY_WC_CHK  PACKAGE UZF_3LAY_WC_CHK CONNECTED TO MODEL UZF_3LAY_WC_CHK  PACKAGE GHB_0            ON UNIT   1014 AT TIME STEP      4, STRESS PERIOD      1
 UBDSV06 SAVING        UZF-GWRCH IN MODEL UZF_3LAY_WC_CHK  PACKAGE UZF_3LAY_WC_CHK CONNECTED TO MODEL UZF_3LAY_WC_CHK  PACKAGE UZF_0            ON UNIT   1014 AT TIME STEP      4, STRESS PERIOD      1
 UBDSV06 SAVING          UZF-GWD IN MODEL UZF_3LAY_WC_CHK  PACKAGE UZF_3LAY_WC_CHK CONNECTED TO MODEL UZF_3LAY_WC_CHK  PACKAGE UZF_0            ON UNIT   1014 AT TIME STEP      4, STRESS PERIOD      1
 UBDSV06 SAVING         UZF-GWET IN MODEL UZF_3LAY_WC_CHK  PACKAGE UZF_3LAY_WC_CHK CONNECTED TO MODEL UZF_3LAY_WC_CHK  PACKAGE UZF_0            ON UNIT   1014 AT TIME STEP      4, STRESS PERIOD      1
 UBDSV06 SAVING     FLOW-JA-FACE IN MODEL UZF_3LAY_WC_CHK  PACKAGE UZF_0           CONNECTED TO MODEL UZF_3LAY_WC_CHK  PACKAGE UZF_0            ON UNIT   1011 AT TIME STEP      4, STRESS PERIOD      1
 UBDSV06 SAVING              GWF IN MODEL UZF_3LAY_WC_CHK  PACKAGE UZF_0           CONNECTED TO MODEL UZF_3LAY_WC_CHK  PACKAGE UZF_3LAY_WC_CHK  ON UNIT   1011 AT TIME STEP      4, STRESS PERIOD      1
 UBDSV06 SAVING     INFILTRATION IN MODEL UZF_3LAY_WC_CHK  PACKAGE UZF_0           CONNECTED TO MODEL UZF_3LAY_WC_CHK  PACKAGE UZF_0            ON UNIT   1011 AT TIME STEP      4, STRESS PERIOD      1
 UBDSV06 SAVING          REJ-INF IN MODEL UZF_3LAY_WC_CHK  PACKAGE UZF_0           CONNECTED TO MODEL UZF_3LAY_WC_CHK  PACKAGE UZF_0            ON UNIT   1011 AT TIME STEP      4, STRESS PERIOD      1
 UBDSV06 SAVING             UZET IN MODEL UZF_3LAY_WC_CHK  PACKAGE UZF_0           CONNECTED TO MODEL UZF_3LAY_WC_CHK  PACKAGE UZF_0            ON UNIT   1011 AT TIME STEP      4, STRESS PERIOD      1
 UBDSV06 SAVING          STORAGE IN MODEL UZF_3LAY_WC_CHK  PACKAGE UZF_0           CONNECTED TO MODEL UZF_3LAY_WC_CHK  PACKAGE UZF_0            ON UNIT   1011 AT TIME STEP      4, STRESS PERIOD      1

 GHB PACKAGE (GHB_0) FLOW RATES   PERIOD      1   STEP        4
 -----------------------------------------------
   NUMBER   CELLID                    RATE      
 -----------------------------------------------
     1      (3,1,1)              -1.75830792E-07
     2      (3,1,10)             -1.75830792E-07
 -----------------------------------------------




 UZF-GWRCH PACKAGE (UZF_0) FLOW RATES   PERIOD      1   STEP        4
 ----------------------------------------------------------------------------------------
   NUMBER   CELLID                    RATE       NAME                                    
 ----------------------------------------------------------------------------------------
     1      (1,1,2)               0.0000000      UZF01                                   
     2      (1,1,3)               0.0000000      UZF02                                   
     3      (1,1,4)               0.0000000      UZF03                                   
     4      (1,1,5)               0.0000000      UZF04                                   
     5      (1,1,6)               0.0000000      UZF05                                   
     6      (1,1,7)               0.0000000      UZF06                                   
     7      (1,1,8)               0.0000000      UZF07                                   
     8      (1,1,9)               0.0000000      UZF08                                   
     9      (2,1,2)               0.0000000      UZF09                                   
     10     (2,1,3)               0.0000000      UZF10                                   
     11     (2,1,4)               0.0000000      UZF11                                   
     12     (2,1,5)               0.0000000      UZF12                                   
     13     (2,1,6)               0.0000000      UZF13                                   
     14     (2,1,7)               0.0000000      UZF14                                   
     15     (2,1,8)               0.0000000      UZF15                                   
     16     (2,1,9)               0.0000000      UZF16                                   
     17     (3,1,2)               0.0000000      UZF17                                   
     18     (3,1,3)               0.0000000      UZF18                                   
     19     (3,1,4)               0.0000000      UZF19                                   
     20     (3,1,5)               0.0000000      UZF20                                   
     21     (3,1,6)               0.0000000      UZF21                                   
     22     (3,1,7)               0.0000000      UZF22                                   
     23     (3,1,8)               0.0000000      UZF23                                   
     24     (3,1,9)               0.0000000      UZF24                                   
 ----------------------------------------------------------------------------------------




 UZF-GWD PACKAGE (UZF_0) FLOW RATES   PERIOD      1   STEP        4
 ----------------------------------------------------------------------------------------
   NUMBER   CELLID                    RATE       NAME                                    
 ----------------------------------------------------------------------------------------
     1      (1,1,2)               0.0000000      UZF01                                   
     2      (1,1,3)               0.0000000      UZF02                                   
     3      (1,1,4)               0.0000000      UZF03                                   
     4      (1,1,5)               0.0000000      UZF04                                   
     5      (1,1,6)               0.0000000      UZF05                                   
     6      (1,1,7)               0.0000000      UZF06                                   
     7      (1,1,8)               0.0000000      UZF07                                   
     8      (1,1,9)               0.0000000      UZF08                                   
     9      (2,1,2)               -0.0000000     UZF09                                   
     10     (2,1,3)               -0.0000000     UZF10                                   
     11     (2,1,4)               -0.0000000     UZF11                                   
     12     (2,1,5)               -0.0000000     UZF12                                   
     13     (2,1,6)               -0.0000000     UZF13                                   
     14     (2,1,7)               -0.0000000     UZF14                                   
     15     (2,1,8)               -0.0000000     UZF15                                   
     16     (2,1,9)               -0.0000000     UZF16                                   
     17     (3,1,2)               -0.0000000     UZF17                                   
     18     (3,1,3)               -0.0000000     UZF18                                   
     19     (3,1,4)               -0.0000000     UZF19                                   
     20     (3,1,5)               -0.0000000     UZF20                                   
     21     (3,1,6)               -0.0000000     UZF21                                   
     22     (3,1,7)               -0.0000000     UZF22                                   
     23     (3,1,8)               -0.0000000     UZF23                                   
     24     (3,1,9)               -0.0000000     UZF24                                   
 ----------------------------------------------------------------------------------------




 UZF-GWET PACKAGE (UZF_0) FLOW RATES   PERIOD      1   STEP        4
 ----------------------------------------------------------------------------------------
   NUMBER   CELLID                    RATE       NAME                                    
 ----------------------------------------------------------------------------------------
     1      (1,1,2)               -0.0000000     UZF01                                   
     2      (1,1,3)               -0.0000000     UZF02                                   
     3      (1,1,4)               -0.0000000     UZF03                                   
     4      (1,1,5)               -0.0000000     UZF04                                   
     5      (1,1,6)               -0.0000000     UZF05                                   
     6      (1,1,7)               -0.0000000     UZF06                                   
     7      (1,1,8)               -0.0000000     UZF07                                   
     8      (1,1,9)               -0.0000000     UZF08                                   
     9      (2,1,2)               -0.0000000     UZF09                                   
     10     (2,1,3)               -0.0000000     UZF10                                   
     11     (2,1,4)               -0.0000000     UZF11                                   
     12     (2,1,5)               -0.0000000     UZF12                                   
     13     (2,1,6)               -0.0000000     UZF13                                   
     14     (2,1,7)               -0.0000000     UZF14                                   
     15     (2,1,8)               -0.0000000     UZF15                                   
     16     (2,1,9)               -0.0000000     UZF16                                   
     17     (3,1,2)               -0.0000000     UZF17                                   
     18     (3,1,3)               -0.0000000     UZF18                                   
     19     (3,1,4)               -0.0000000     UZF19                                   
     20     (3,1,5)               -0.0000000     UZF20                                   
     21     (3,1,6)               -0.0000000     UZF21                                   
     22     (3,1,7)               -0.0000000     UZF22                                   
     23     (3,1,8)               -0.0000000     UZF23                                   
     24     (3,1,9)               -0.0000000     UZF24                                   
 ----------------------------------------------------------------------------------------




 UZF_0 PACKAGE - SUMMARY OF FLOWS FOR EACH CONTROL VOLUME   PERIOD      1   STEP        4
 ----------------------------------------------------------------------------------------------------------------------------------------------------
                                                                                                                                           PERCENT   
   NUMBER   CELLID                  INFLOW      OUTFLOW        GWF      INFILTRATION   REJ INF        UZET       STORAGE      IN - OUT    DIFFERENCE 
 ----------------------------------------------------------------------------------------------------------------------------------------------------
     1      (1,1,2)               0.0000      -6.17284E-07  0.0000       0.12500      0.0000       0.0000      -0.12500      5.55112E-17  4.44089E-14
     2      (1,1,3)               0.0000      -6.17284E-07  0.0000       0.12500      0.0000       0.0000      -0.12500      5.55112E-17  4.44089E-14
     3      (1,1,4)               0.0000      -6.17284E-07  0.0000       0.12500      0.0000       0.0000      -0.12500      5.55112E-17  4.44089E-14
     4      (1,1,5)               0.0000      -6.17284E-07  0.0000       0.12500      0.0000       0.0000      -0.12500      5.55112E-17  4.44089E-14
     5      (1,1,6)               0.0000      -6.17284E-07  0.0000       0.12500      0.0000       0.0000      -0.12500      5.55112E-17  4.44089E-14
     6      (1,1,7)               0.0000      -6.17284E-07  0.0000       0.12500      0.0000       0.0000      -0.12500      5.55112E-17  4.44089E-14
     7      (1,1,8)               0.0000      -6.17284E-07  0.0000       0.12500      0.0000       0.0000      -0.12500      5.55112E-17  4.44089E-14
     8      (1,1,9)               0.0000      -6.17284E-07  0.0000       0.12500      0.0000       0.0000      -0.12500      5.55112E-17  4.44089E-14
     9      (2,1,2)               6.17284E-07 -6.17284E-07  0.0000       0.0000       0.0000       0.0000       0.0000       0.0000       0.0000     
     10     (2,1,3)               6.17284E-07 -6.17284E-07  0.0000       0.0000       0.0000       0.0000       0.0000       0.0000       0.0000     
     11     (2,1,4)               6.17284E-07 -6.17284E-07  0.0000       0.0000       0.0000       0.0000       0.0000       0.0000       0.0000     
     12     (2,1,5)               6.17284E-07 -6.17284E-07  0.0000       0.0000       0.0000       0.0000       0.0000       0.0000       0.0000     
     13     (2,1,6)               6.17284E-07 -6.17284E-07  0.0000       0.0000       0.0000       0.0000       0.0000       0.0000       0.0000     
     14     (2,1,7)               6.17284E-07 -6.17284E-07  0.0000       0.0000       0.0000       0.0000       0.0000       0.0000       0.0000     
     15     (2,1,8)               6.17284E-07 -6.17284E-07  0.0000       0.0000       0.0000       0.0000       0.0000       0.0000       0.0000     
     16     (2,1,9)               6.17284E-07 -6.17284E-07  0.0000       0.0000       0.0000       0.0000       0.0000       0.0000       0.0000     
     17     (3,1,2)               6.17284E-07  0.0000       0.0000       0.0000       0.0000       0.0000      -6.17284E-07 -1.79228E-17 -2.90349E-09
     18     (3,1,3)               6.17284E-07  0.0000       0.0000       0.0000       0.0000       0.0000      -6.17284E-07 -1.79228E-17 -2.90349E-09
     19     (3,1,4)               6.17284E-07  0.0000       0.0000       0.0000       0.0000       0.0000      -6.17284E-07 -1.79228E-17 -2.90349E-09
     20     (3,1,5)               6.17284E-07  0.0000       0.0000       0.0000       0.0000       0.0000      -6.17284E-07  2.89389E-18  4.68810E-10
     21     (3,1,6)               6.17284E-07  0.0000       0.0000       0.0000       0.0000       0.0000      -6.17284E-07  2.89389E-18  4.68810E-10
     22     (3,1,7)               6.17284E-07  0.0000       0.0000       0.0000       0.0000       0.0000      -6.17284E-07 -1.79228E-17 -2.90349E-09
     23     (3,1,8)               6.17284E-07  0.0000       0.0000       0.0000       0.0000       0.0000      -6.17284E-07 -1.79228E-17 -2.90349E-09
     24     (3,1,9)               6.17284E-07  0.0000       0.0000       0.0000       0.0000       0.0000      -6.17284E-07 -1.79228E-17 -2.90349E-09
 ----------------------------------------------------------------------------------------------------------------------------------------------------


1
  HEAD IN LAYER   1 AT END OF TIME STEP   4 IN STRESS PERIOD    1
  ---------------------------------------------------------------------------

                1               2               3               4               5               6               7               8               9              10
 ................................................................................................................................................................
   1     -25.5000        -25.5000        -25.5000        -25.5000        -25.5000        -25.5000        -25.5000        -25.5000        -25.5000        -25.5000    
1
  HEAD IN LAYER   2 AT END OF TIME STEP   4 IN STRESS PERIOD    1
  ---------------------------------------------------------------------------

                1               2               3               4               5               6               7               8               9              10
 ................................................................................................................................................................
   1     -25.5000        -25.5000        -25.5000        -25.5000        -25.5000        -25.5000        -25.5000        -25.5000        -25.5000        -25.5000    
1
  HEAD IN LAYER   3 AT END OF TIME STEP   4 IN STRESS PERIOD    1
  ---------------------------------------------------------------------------

                1               2               3               4               5               6               7               8               9              10
 ................................................................................................................................................................
   1     -25.5000        -25.5000        -25.5000        -25.5000        -25.5000        -25.5000        -25.5000        -25.5000        -25.5000        -25.5000    

 HEAD WILL BE SAVED ON UNIT 1015 AT END OF TIME STEP    4, STRESS PERIOD    1


  UZF_0 BUDGET FOR ENTIRE MODEL AT END OF TIME STEP    4, STRESS PERIOD   1
  ------------------------------------------------------------------------------

     CUMULATIVE UZF_0      L**3       RATES FOR THIS TIME STEP      L**3/T
     ------------------                 ------------------------

           IN:                                      IN:
           ---                                      ---
                 GWF =           0.0000                   GWF =           0.0000
        INFILTRATION =           4.0000          INFILTRATION =           1.0000
             REJ-INF =           0.0000               REJ-INF =           0.0000
                UZET =           0.0000                  UZET =           0.0000
             STORAGE =           0.0000               STORAGE =           0.0000

            TOTAL IN =           4.0000              TOTAL IN =           1.0000

          OUT:                                     OUT:
          ----                                     ----
                 GWF =           0.0000                   GWF =           0.0000
        INFILTRATION =           0.0000          INFILTRATION =           0.0000
             REJ-INF =           0.0000               REJ-INF =           0.0000
                UZET =           0.0000                  UZET =           0.0000
             STORAGE =           4.0000               STORAGE =           1.0000

           TOTAL OUT =           4.0000             TOTAL OUT =           1.0000

            IN - OUT =       8.8818E-16              IN - OUT =       2.2204E-16

 PERCENT DISCREPANCY =           0.00     PERCENT DISCREPANCY =           0.00



  VOLUME BUDGET FOR ENTIRE MODEL AT END OF TIME STEP    4, STRESS PERIOD   1
  ---------------------------------------------------------------------------------------------------

     CUMULATIVE VOLUME      L**3       RATES FOR THIS TIME STEP      L**3/T          PACKAGE NAME    
     ------------------                 ------------------------                     ----------------

           IN:                                      IN:
           ---                                      ---
              STO-SS =       2.3750E-04                STO-SS =       5.2739E-11     STORAGE                          
              STO-SY =           1.5000                STO-SY =       3.5159E-07     STORAGE                          
                 GHB =           0.0000                   GHB =           0.0000     GHB_0                            
           UZF-GWRCH =           0.0000             UZF-GWRCH =           0.0000     UZF_0                            
             UZF-GWD =           0.0000               UZF-GWD =           0.0000     UZF_0                            
            UZF-GWET =           0.0000              UZF-GWET =           0.0000     UZF_0                            

            TOTAL IN =           1.5002              TOTAL IN =       3.5164E-07

          OUT:                                     OUT:
          ----                                     ----
              STO-SS =           0.0000                STO-SS =           0.0000     STORAGE                          
              STO-SY =           0.0000                STO-SY =           0.0000     STORAGE                          
                 GHB =           1.5002                   GHB =       3.5166E-07     GHB_0                            
           UZF-GWRCH =           0.0000             UZF-GWRCH =           0.0000     UZF_0                            
             UZF-GWD =           0.0000               UZF-GWD =           0.0000     UZF_0                            
            UZF-GWET =           0.0000              UZF-GWET =           0.0000     UZF_0                            

           TOTAL OUT =           1.5002             TOTAL OUT =       3.5166E-07

            IN - OUT =       5.1281E-10              IN - OUT =      -1.8204E-11

 PERCENT DISCREPANCY =           0.00     PERCENT DISCREPANCY =          -0.01




         TIME SUMMARY AT END OF TIME STEP    4 IN STRESS PERIOD    1
                    SECONDS     MINUTES      HOURS       DAYS        YEARS
                    -----------------------------------------------------------
   TIME STEP LENGTH  86400.      1440.0      24.000      1.0000     2.73785E-03
 STRESS PERIOD TIME 3.45600E+05  5760.0      96.000      4.0000     1.09514E-02
         TOTAL TIME 3.45600E+05  5760.0      96.000      4.0000     1.09514E-02


end timestep


start timestep kper="1" kstp="5" mode="normal"

 UBDSV1 SAVING           STO-SS ON UNIT   1014 AT TIME STEP      5, STRESS PERIOD      1
 UBDSV1 SAVING           STO-SY ON UNIT   1014 AT TIME STEP      5, STRESS PERIOD      1
 UBDSV1 SAVING     FLOW-JA-FACE ON UNIT   1014 AT TIME STEP      5, STRESS PERIOD      1
 UBDSV06 SAVING              GHB IN MODEL UZF_3LAY_WC_CHK  PACKAGE UZF_3LAY_WC_CHK CONNECTED TO MODEL UZF_3LAY_WC_CHK  PACKAGE GHB_0            ON UNIT   1014 AT TIME STEP      5, STRESS PERIOD      1
 UBDSV06 SAVING        UZF-GWRCH IN MODEL UZF_3LAY_WC_CHK  PACKAGE UZF_3LAY_WC_CHK CONNECTED TO MODEL UZF_3LAY_WC_CHK  PACKAGE UZF_0            ON UNIT   1014 AT TIME STEP      5, STRESS PERIOD      1
 UBDSV06 SAVING          UZF-GWD IN MODEL UZF_3LAY_WC_CHK  PACKAGE UZF_3LAY_WC_CHK CONNECTED TO MODEL UZF_3LAY_WC_CHK  PACKAGE UZF_0            ON UNIT   1014 AT TIME STEP      5, STRESS PERIOD      1
 UBDSV06 SAVING         UZF-GWET IN MODEL UZF_3LAY_WC_CHK  PACKAGE UZF_3LAY_WC_CHK CONNECTED TO MODEL UZF_3LAY_WC_CHK  PACKAGE UZF_0            ON UNIT   1014 AT TIME STEP      5, STRESS PERIOD      1
 UBDSV06 SAVING     FLOW-JA-FACE IN MODEL UZF_3LAY_WC_CHK  PACKAGE UZF_0           CONNECTED TO MODEL UZF_3LAY_WC_CHK  PACKAGE UZF_0            ON UNIT   1011 AT TIME STEP      5, STRESS PERIOD      1
 UBDSV06 SAVING              GWF IN MODEL UZF_3LAY_WC_CHK  PACKAGE UZF_0           CONNECTED TO MODEL UZF_3LAY_WC_CHK  PACKAGE UZF_3LAY_WC_CHK  ON UNIT   1011 AT TIME STEP      5, STRESS PERIOD      1
 UBDSV06 SAVING     INFILTRATION IN MODEL UZF_3LAY_WC_CHK  PACKAGE UZF_0           CONNECTED TO MODEL UZF_3LAY_WC_CHK  PACKAGE UZF_0            ON UNIT   1011 AT TIME STEP      5, STRESS PERIOD      1
 UBDSV06 SAVING          REJ-INF IN MODEL UZF_3LAY_WC_CHK  PACKAGE UZF_0           CONNECTED TO MODEL UZF_3LAY_WC_CHK  PACKAGE UZF_0            ON UNIT   1011 AT TIME STEP      5, STRESS PERIOD      1
 UBDSV06 SAVING             UZET IN MODEL UZF_3LAY_WC_CHK  PACKAGE UZF_0           CONNECTED TO MODEL UZF_3LAY_WC_CHK  PACKAGE UZF_0            ON UNIT   1011 AT TIME STEP      5, STRESS PERIOD      1
 UBDSV06 SAVING          STORAGE IN MODEL UZF_3LAY_WC_CHK  PACKAGE UZF_0           CONNECTED TO MODEL UZF_3LAY_WC_CHK  PACKAGE UZF_0            ON UNIT   1011 AT TIME STEP      5, STRESS PERIOD      1

 GHB PACKAGE (GHB_0) FLOW RATES   PERIOD      1   STEP        5
 -----------------------------------------------
   NUMBER   CELLID                    RATE      
 -----------------------------------------------
     1      (3,1,1)              -1.20417099E-09
     2      (3,1,10)             -1.20417099E-09
 -----------------------------------------------




 UZF-GWRCH PACKAGE (UZF_0) FLOW RATES   PERIOD      1   STEP        5
 ----------------------------------------------------------------------------------------
   NUMBER   CELLID                    RATE       NAME                                    
 ----------------------------------------------------------------------------------------
     1      (1,1,2)               0.0000000      UZF01                                   
     2      (1,1,3)               0.0000000      UZF02                                   
     3      (1,1,4)               0.0000000      UZF03                                   
     4      (1,1,5)               0.0000000      UZF04                                   
     5      (1,1,6)               0.0000000      UZF05                                   
     6      (1,1,7)               0.0000000      UZF06                                   
     7      (1,1,8)               0.0000000      UZF07                                   
     8      (1,1,9)               0.0000000      UZF08                                   
     9      (2,1,2)               0.0000000      UZF09                                   
     10     (2,1,3)               0.0000000      UZF10                                   
     11     (2,1,4)               0.0000000      UZF11                                   
     12     (2,1,5)               0.0000000      UZF12                                   
     13     (2,1,6)               0.0000000      UZF13                                   
     14     (2,1,7)               0.0000000      UZF14                                   
     15     (2,1,8)               0.0000000      UZF15                                   
     16     (2,1,9)               0.0000000      UZF16                                   
     17     (3,1,2)               0.0000000      UZF17                                   
     18     (3,1,3)               0.0000000      UZF18                                   
     19     (3,1,4)               0.0000000      UZF19                                   
     20     (3,1,5)               0.0000000      UZF20                                   
     21     (3,1,6)               0.0000000      UZF21                                   
     22     (3,1,7)               0.0000000      UZF22                                   
     23     (3,1,8)               0.0000000      UZF23                                   
     24     (3,1,9)               0.0000000      UZF24                                   
 ----------------------------------------------------------------------------------------




 UZF-GWD PACKAGE (UZF_0) FLOW RATES   PERIOD      1   STEP        5
 ----------------------------------------------------------------------------------------
   NUMBER   CELLID                    RATE       NAME                                    
 ----------------------------------------------------------------------------------------
     1      (1,1,2)               0.0000000      UZF01                                   
     2      (1,1,3)               0.0000000      UZF02                                   
     3      (1,1,4)               0.0000000      UZF03                                   
     4      (1,1,5)               0.0000000      UZF04                                   
     5      (1,1,6)               0.0000000      UZF05                                   
     6      (1,1,7)               0.0000000      UZF06                                   
     7      (1,1,8)               0.0000000      UZF07                                   
     8      (1,1,9)               0.0000000      UZF08                                   
     9      (2,1,2)               -0.0000000     UZF09                                   
     10     (2,1,3)               -0.0000000     UZF10                                   
     11     (2,1,4)               -0.0000000     UZF11                                   
     12     (2,1,5)               -0.0000000     UZF12                                   
     13     (2,1,6)               -0.0000000     UZF13                                   
     14     (2,1,7)               -0.0000000     UZF14                                   
     15     (2,1,8)               -0.0000000     UZF15                                   
     16     (2,1,9)               -0.0000000     UZF16                                   
     17     (3,1,2)               -0.0000000     UZF17                                   
     18     (3,1,3)               -0.0000000     UZF18                                   
     19     (3,1,4)               -0.0000000     UZF19                                   
     20     (3,1,5)               -0.0000000     UZF20                                   
     21     (3,1,6)               -0.0000000     UZF21                                   
     22     (3,1,7)               -0.0000000     UZF22                                   
     23     (3,1,8)               -0.0000000     UZF23                                   
     24     (3,1,9)               -0.0000000     UZF24                                   
 ----------------------------------------------------------------------------------------




 UZF-GWET PACKAGE (UZF_0) FLOW RATES   PERIOD      1   STEP        5
 ----------------------------------------------------------------------------------------
   NUMBER   CELLID                    RATE       NAME                                    
 ----------------------------------------------------------------------------------------
     1      (1,1,2)               -0.0000000     UZF01                                   
     2      (1,1,3)               -0.0000000     UZF02                                   
     3      (1,1,4)               -0.0000000     UZF03                                   
     4      (1,1,5)               -0.0000000     UZF04                                   
     5      (1,1,6)               -0.0000000     UZF05                                   
     6      (1,1,7)               -0.0000000     UZF06                                   
     7      (1,1,8)               -0.0000000     UZF07                                   
     8      (1,1,9)               -0.0000000     UZF08                                   
     9      (2,1,2)               -0.0000000     UZF09                                   
     10     (2,1,3)               -0.0000000     UZF10                                   
     11     (2,1,4)               -0.0000000     UZF11                                   
     12     (2,1,5)               -0.0000000     UZF12                                   
     13     (2,1,6)               -0.0000000     UZF13                                   
     14     (2,1,7)               -0.0000000     UZF14                                   
     15     (2,1,8)               -0.0000000     UZF15                                   
     16     (2,1,9)               -0.0000000     UZF16                                   
     17     (3,1,2)               -0.0000000     UZF17                                   
     18     (3,1,3)               -0.0000000     UZF18                                   
     19     (3,1,4)               -0.0000000     UZF19                                   
     20     (3,1,5)               -0.0000000     UZF20                                   
     21     (3,1,6)               -0.0000000     UZF21                                   
     22     (3,1,7)               -0.0000000     UZF22                                   
     23     (3,1,8)               -0.0000000     UZF23                                   
     24     (3,1,9)               -0.0000000     UZF24                                   
 ----------------------------------------------------------------------------------------




 UZF_0 PACKAGE - SUMMARY OF FLOWS FOR EACH CONTROL VOLUME   PERIOD      1   STEP        5
 ----------------------------------------------------------------------------------------------------------------------------------------------------
                                                                                                                                           PERCENT   
   NUMBER   CELLID                  INFLOW      OUTFLOW        GWF      INFILTRATION   REJ INF        UZET       STORAGE      IN - OUT    DIFFERENCE 
 ----------------------------------------------------------------------------------------------------------------------------------------------------
     1      (1,1,2)               0.0000      -6.17284E-07  0.0000       0.12500      0.0000       0.0000      -0.12500     -1.11022E-16 -8.88178E-14
     2      (1,1,3)               0.0000      -6.17284E-07  0.0000       0.12500      0.0000       0.0000      -0.12500     -1.11022E-16 -8.88178E-14
     3      (1,1,4)               0.0000      -6.17284E-07  0.0000       0.12500      0.0000       0.0000      -0.12500     -1.11022E-16 -8.88178E-14
     4      (1,1,5)               0.0000      -6.17284E-07  0.0000       0.12500      0.0000       0.0000      -0.12500     -1.11022E-16 -8.88178E-14
     5      (1,1,6)               0.0000      -6.17284E-07  0.0000       0.12500      0.0000       0.0000      -0.12500     -1.11022E-16 -8.88178E-14
     6      (1,1,7)               0.0000      -6.17284E-07  0.0000       0.12500      0.0000       0.0000      -0.12500     -1.11022E-16 -8.88178E-14
     7      (1,1,8)               0.0000      -6.17284E-07  0.0000       0.12500      0.0000       0.0000      -0.12500     -1.11022E-16 -8.88178E-14
     8      (1,1,9)               0.0000      -6.17284E-07  0.0000       0.12500      0.0000       0.0000      -0.12500     -1.11022E-16 -8.88178E-14
     9      (2,1,2)               6.17284E-07 -6.17284E-07  0.0000       0.0000       0.0000       0.0000       0.0000       0.0000       0.0000     
     10     (2,1,3)               6.17284E-07 -6.17284E-07  0.0000       0.0000       0.0000       0.0000       0.0000       0.0000       0.0000     
     11     (2,1,4)               6.17284E-07 -6.17284E-07  0.0000       0.0000       0.0000       0.0000       0.0000       0.0000       0.0000     
     12     (2,1,5)               6.17284E-07 -6.17284E-07  0.0000       0.0000       0.0000       0.0000       0.0000       0.0000       0.0000     
     13     (2,1,6)               6.17284E-07 -6.17284E-07  0.0000       0.0000       0.0000       0.0000       0.0000       0.0000       0.0000     
     14     (2,1,7)               6.17284E-07 -6.17284E-07  0.0000       0.0000       0.0000       0.0000       0.0000       0.0000       0.0000     
     15     (2,1,8)               6.17284E-07 -6.17284E-07  0.0000       0.0000       0.0000       0.0000       0.0000       0.0000       0.0000     
     16     (2,1,9)               6.17284E-07 -6.17284E-07  0.0000       0.0000       0.0000       0.0000       0.0000       0.0000       0.0000     
     17     (3,1,2)               6.17284E-07  0.0000       0.0000       0.0000       0.0000       0.0000      -6.17284E-07  2.37106E-17  3.84111E-09
     18     (3,1,3)               6.17284E-07  0.0000       0.0000       0.0000       0.0000       0.0000      -6.17284E-07 -4.04501E-18 -6.55291E-10
     19     (3,1,4)               6.17284E-07  0.0000       0.0000       0.0000       0.0000       0.0000      -6.17284E-07  1.67717E-17  2.71701E-09
     20     (3,1,5)               6.17284E-07  0.0000       0.0000       0.0000       0.0000       0.0000      -6.17284E-07  2.89389E-18  4.68810E-10
     21     (3,1,6)               6.17284E-07  0.0000       0.0000       0.0000       0.0000       0.0000      -6.17284E-07  2.89389E-18  4.68810E-10
     22     (3,1,7)               6.17284E-07  0.0000       0.0000       0.0000       0.0000       0.0000      -6.17284E-07  1.67717E-17  2.71701E-09
     23     (3,1,8)               6.17284E-07  0.0000       0.0000       0.0000       0.0000       0.0000      -6.17284E-07 -4.04501E-18 -6.55291E-10
     24     (3,1,9)               6.17284E-07  0.0000       0.0000       0.0000       0.0000       0.0000      -6.17284E-07  2.37106E-17  3.84111E-09
 ----------------------------------------------------------------------------------------------------------------------------------------------------


1
  HEAD IN LAYER   1 AT END OF TIME STEP   5 IN STRESS PERIOD    1
  ---------------------------------------------------------------------------

                1               2               3               4               5               6               7               8               9              10
 ................................................................................................................................................................
   1     -25.5000        -25.5000        -25.5000        -25.5000        -25.5000        -25.5000        -25.5000        -25.5000        -25.5000        -25.5000    
1
  HEAD IN LAYER   2 AT END OF TIME STEP   5 IN STRESS PERIOD    1
  ---------------------------------------------------------------------------

                1               2               3               4               5               6               7               8               9              10
 ................................................................................................................................................................
   1     -25.5000        -25.5000        -25.5000        -25.5000        -25.5000        -25.5000        -25.5000        -25.5000        -25.5000        -25.5000    
1
  HEAD IN LAYER   3 AT END OF TIME STEP   5 IN STRESS PERIOD    1
  ---------------------------------------------------------------------------

                1               2               3               4               5               6               7               8               9              10
 ................................................................................................................................................................
   1     -25.5000        -25.5000        -25.5000        -25.5000        -25.5000        -25.5000        -25.5000        -25.5000        -25.5000        -25.5000    

 HEAD WILL BE SAVED ON UNIT 1015 AT END OF TIME STEP    5, STRESS PERIOD    1


  UZF_0 BUDGET FOR ENTIRE MODEL AT END OF TIME STEP    5, STRESS PERIOD   1
  ------------------------------------------------------------------------------

     CUMULATIVE UZF_0      L**3       RATES FOR THIS TIME STEP      L**3/T
     ------------------                 ------------------------

           IN:                                      IN:
           ---                                      ---
                 GWF =           0.0000                   GWF =           0.0000
        INFILTRATION =           5.0000          INFILTRATION =           1.0000
             REJ-INF =           0.0000               REJ-INF =           0.0000
                UZET =           0.0000                  UZET =           0.0000
             STORAGE =           0.0000               STORAGE =           0.0000

            TOTAL IN =           5.0000              TOTAL IN =           1.0000

          OUT:                                     OUT:
          ----                                     ----
                 GWF =           0.0000                   GWF =           0.0000
        INFILTRATION =           0.0000          INFILTRATION =           0.0000
             REJ-INF =           0.0000               REJ-INF =           0.0000
                UZET =           0.0000                  UZET =           0.0000
             STORAGE =           5.0000               STORAGE =           1.0000

           TOTAL OUT =           5.0000             TOTAL OUT =           1.0000

            IN - OUT =           0.0000              IN - OUT =      -8.8818E-16

 PERCENT DISCREPANCY =           0.00     PERCENT DISCREPANCY =          -0.00



  VOLUME BUDGET FOR ENTIRE MODEL AT END OF TIME STEP    5, STRESS PERIOD   1
  ---------------------------------------------------------------------------------------------------

     CUMULATIVE VOLUME      L**3       RATES FOR THIS TIME STEP      L**3/T          PACKAGE NAME    
     ------------------                 ------------------------                     ----------------

           IN:                                      IN:
           ---                                      ---
              STO-SS =       2.3750E-04                STO-SS =       3.4961E-13     STORAGE                          
              STO-SY =           1.5000                STO-SY =       2.3308E-09     STORAGE                          
                 GHB =           0.0000                   GHB =           0.0000     GHB_0                            
           UZF-GWRCH =           0.0000             UZF-GWRCH =           0.0000     UZF_0                            
             UZF-GWD =           0.0000               UZF-GWD =           0.0000     UZF_0                            
            UZF-GWET =           0.0000              UZF-GWET =           0.0000     UZF_0                            

            TOTAL IN =           1.5002              TOTAL IN =       2.3311E-09

          OUT:                                     OUT:
          ----                                     ----
              STO-SS =           0.0000                STO-SS =           0.0000     STORAGE                          
              STO-SY =           0.0000                STO-SY =           0.0000     STORAGE                          
                 GHB =           1.5002                   GHB =       2.4083E-09     GHB_0                            
           UZF-GWRCH =           0.0000             UZF-GWRCH =           0.0000     UZF_0                            
             UZF-GWD =           0.0000               UZF-GWD =           0.0000     UZF_0                            
            UZF-GWET =           0.0000              UZF-GWET =           0.0000     UZF_0                            

           TOTAL OUT =           1.5002             TOTAL OUT =       2.4083E-09

            IN - OUT =       4.3557E-10              IN - OUT =      -7.7240E-11

 PERCENT DISCREPANCY =           0.00     PERCENT DISCREPANCY =          -3.26




         TIME SUMMARY AT END OF TIME STEP    5 IN STRESS PERIOD    1
                    SECONDS     MINUTES      HOURS       DAYS        YEARS
                    -----------------------------------------------------------
   TIME STEP LENGTH  86400.      1440.0      24.000      1.0000     2.73785E-03
 STRESS PERIOD TIME 4.32000E+05  7200.0      120.00      5.0000     1.36893E-02
         TOTAL TIME 4.32000E+05  7200.0      120.00      5.0000     1.36893E-02


end timestep


start timestep kper="1" kstp="6" mode="normal"

 UBDSV1 SAVING           STO-SS ON UNIT   1014 AT TIME STEP      6, STRESS PERIOD      1
 UBDSV1 SAVING           STO-SY ON UNIT   1014 AT TIME STEP      6, STRESS PERIOD      1
 UBDSV1 SAVING     FLOW-JA-FACE ON UNIT   1014 AT TIME STEP      6, STRESS PERIOD      1
 UBDSV06 SAVING              GHB IN MODEL UZF_3LAY_WC_CHK  PACKAGE UZF_3LAY_WC_CHK CONNECTED TO MODEL UZF_3LAY_WC_CHK  PACKAGE GHB_0            ON UNIT   1014 AT TIME STEP      6, STRESS PERIOD      1
 UBDSV06 SAVING        UZF-GWRCH IN MODEL UZF_3LAY_WC_CHK  PACKAGE UZF_3LAY_WC_CHK CONNECTED TO MODEL UZF_3LAY_WC_CHK  PACKAGE UZF_0            ON UNIT   1014 AT TIME STEP      6, STRESS PERIOD      1
 UBDSV06 SAVING          UZF-GWD IN MODEL UZF_3LAY_WC_CHK  PACKAGE UZF_3LAY_WC_CHK CONNECTED TO MODEL UZF_3LAY_WC_CHK  PACKAGE UZF_0            ON UNIT   1014 AT TIME STEP      6, STRESS PERIOD      1
 UBDSV06 SAVING         UZF-GWET IN MODEL UZF_3LAY_WC_CHK  PACKAGE UZF_3LAY_WC_CHK CONNECTED TO MODEL UZF_3LAY_WC_CHK  PACKAGE UZF_0            ON UNIT   1014 AT TIME STEP      6, STRESS PERIOD      1
 UBDSV06 SAVING     FLOW-JA-FACE IN MODEL UZF_3LAY_WC_CHK  PACKAGE UZF_0           CONNECTED TO MODEL UZF_3LAY_WC_CHK  PACKAGE UZF_0            ON UNIT   1011 AT TIME STEP      6, STRESS PERIOD      1
 UBDSV06 SAVING              GWF IN MODEL UZF_3LAY_WC_CHK  PACKAGE UZF_0           CONNECTED TO MODEL UZF_3LAY_WC_CHK  PACKAGE UZF_3LAY_WC_CHK  ON UNIT   1011 AT TIME STEP      6, STRESS PERIOD      1
 UBDSV06 SAVING     INFILTRATION IN MODEL UZF_3LAY_WC_CHK  PACKAGE UZF_0           CONNECTED TO MODEL UZF_3LAY_WC_CHK  PACKAGE UZF_0            ON UNIT   1011 AT TIME STEP      6, STRESS PERIOD      1
 UBDSV06 SAVING          REJ-INF IN MODEL UZF_3LAY_WC_CHK  PACKAGE UZF_0           CONNECTED TO MODEL UZF_3LAY_WC_CHK  PACKAGE UZF_0            ON UNIT   1011 AT TIME STEP      6, STRESS PERIOD      1
 UBDSV06 SAVING             UZET IN MODEL UZF_3LAY_WC_CHK  PACKAGE UZF_0           CONNECTED TO MODEL UZF_3LAY_WC_CHK  PACKAGE UZF_0            ON UNIT   1011 AT TIME STEP      6, STRESS PERIOD      1
 UBDSV06 SAVING          STORAGE IN MODEL UZF_3LAY_WC_CHK  PACKAGE UZF_0           CONNECTED TO MODEL UZF_3LAY_WC_CHK  PACKAGE UZF_0            ON UNIT   1011 AT TIME STEP      6, STRESS PERIOD      1

 GHB PACKAGE (GHB_0) FLOW RATES   PERIOD      1   STEP        6
 -----------------------------------------------
   NUMBER   CELLID                    RATE      
 -----------------------------------------------
     1      (3,1,1)              -1.19689503E-09
     2      (3,1,10)             -1.19689503E-09
 -----------------------------------------------




 UZF-GWRCH PACKAGE (UZF_0) FLOW RATES   PERIOD      1   STEP        6
 ----------------------------------------------------------------------------------------
   NUMBER   CELLID                    RATE       NAME                                    
 ----------------------------------------------------------------------------------------
     1      (1,1,2)               0.0000000      UZF01                                   
     2      (1,1,3)               0.0000000      UZF02                                   
     3      (1,1,4)               0.0000000      UZF03                                   
     4      (1,1,5)               0.0000000      UZF04                                   
     5      (1,1,6)               0.0000000      UZF05                                   
     6      (1,1,7)               0.0000000      UZF06                                   
     7      (1,1,8)               0.0000000      UZF07                                   
     8      (1,1,9)               0.0000000      UZF08                                   
     9      (2,1,2)               0.0000000      UZF09                                   
     10     (2,1,3)               0.0000000      UZF10                                   
     11     (2,1,4)               0.0000000      UZF11                                   
     12     (2,1,5)               0.0000000      UZF12                                   
     13     (2,1,6)               0.0000000      UZF13                                   
     14     (2,1,7)               0.0000000      UZF14                                   
     15     (2,1,8)               0.0000000      UZF15                                   
     16     (2,1,9)               0.0000000      UZF16                                   
     17     (3,1,2)               0.0000000      UZF17                                   
     18     (3,1,3)               0.0000000      UZF18                                   
     19     (3,1,4)               0.0000000      UZF19                                   
     20     (3,1,5)               0.0000000      UZF20                                   
     21     (3,1,6)               0.0000000      UZF21                                   
     22     (3,1,7)               0.0000000      UZF22                                   
     23     (3,1,8)               0.0000000      UZF23                                   
     24     (3,1,9)               0.0000000      UZF24                                   
 ----------------------------------------------------------------------------------------




 UZF-GWD PACKAGE (UZF_0) FLOW RATES   PERIOD      1   STEP        6
 ----------------------------------------------------------------------------------------
   NUMBER   CELLID                    RATE       NAME                                    
 ----------------------------------------------------------------------------------------
     1      (1,1,2)               0.0000000      UZF01                                   
     2      (1,1,3)               0.0000000      UZF02                                   
     3      (1,1,4)               0.0000000      UZF03                                   
     4      (1,1,5)               0.0000000      UZF04                                   
     5      (1,1,6)               0.0000000      UZF05                                   
     6      (1,1,7)               0.0000000      UZF06                                   
     7      (1,1,8)               0.0000000      UZF07                                   
     8      (1,1,9)               0.0000000      UZF08                                   
     9      (2,1,2)               -0.0000000     UZF09                                   
     10     (2,1,3)               -0.0000000     UZF10                                   
     11     (2,1,4)               -0.0000000     UZF11                                   
     12     (2,1,5)               -0.0000000     UZF12                                   
     13     (2,1,6)               -0.0000000     UZF13                                   
     14     (2,1,7)               -0.0000000     UZF14                                   
     15     (2,1,8)               -0.0000000     UZF15                                   
     16     (2,1,9)               -0.0000000     UZF16                                   
     17     (3,1,2)               -0.0000000     UZF17                                   
     18     (3,1,3)               -0.0000000     UZF18                                   
     19     (3,1,4)               -0.0000000     UZF19                                   
     20     (3,1,5)               -0.0000000     UZF20                                   
     21     (3,1,6)               -0.0000000     UZF21                                   
     22     (3,1,7)               -0.0000000     UZF22                                   
     23     (3,1,8)               -0.0000000     UZF23                                   
     24     (3,1,9)               -0.0000000     UZF24                                   
 ----------------------------------------------------------------------------------------




 UZF-GWET PACKAGE (UZF_0) FLOW RATES   PERIOD      1   STEP        6
 ----------------------------------------------------------------------------------------
   NUMBER   CELLID                    RATE       NAME                                    
 ----------------------------------------------------------------------------------------
     1      (1,1,2)               -0.0000000     UZF01                                   
     2      (1,1,3)               -0.0000000     UZF02                                   
     3      (1,1,4)               -0.0000000     UZF03                                   
     4      (1,1,5)               -0.0000000     UZF04                                   
     5      (1,1,6)               -0.0000000     UZF05                                   
     6      (1,1,7)               -0.0000000     UZF06                                   
     7      (1,1,8)               -0.0000000     UZF07                                   
     8      (1,1,9)               -0.0000000     UZF08                                   
     9      (2,1,2)               -0.0000000     UZF09                                   
     10     (2,1,3)               -0.0000000     UZF10                                   
     11     (2,1,4)               -0.0000000     UZF11                                   
     12     (2,1,5)               -0.0000000     UZF12                                   
     13     (2,1,6)               -0.0000000     UZF13                                   
     14     (2,1,7)               -0.0000000     UZF14                                   
     15     (2,1,8)               -0.0000000     UZF15                                   
     16     (2,1,9)               -0.0000000     UZF16                                   
     17     (3,1,2)               -0.0000000     UZF17                                   
     18     (3,1,3)               -0.0000000     UZF18                                   
     19     (3,1,4)               -0.0000000     UZF19                                   
     20     (3,1,5)               -0.0000000     UZF20                                   
     21     (3,1,6)               -0.0000000     UZF21                                   
     22     (3,1,7)               -0.0000000     UZF22                                   
     23     (3,1,8)               -0.0000000     UZF23                                   
     24     (3,1,9)               -0.0000000     UZF24                                   
 ----------------------------------------------------------------------------------------




 UZF_0 PACKAGE - SUMMARY OF FLOWS FOR EACH CONTROL VOLUME   PERIOD      1   STEP        6
 ----------------------------------------------------------------------------------------------------------------------------------------------------
                                                                                                                                           PERCENT   
   NUMBER   CELLID                  INFLOW      OUTFLOW        GWF      INFILTRATION   REJ INF        UZET       STORAGE      IN - OUT    DIFFERENCE 
 ----------------------------------------------------------------------------------------------------------------------------------------------------
     1      (1,1,2)               0.0000      -6.17284E-07  0.0000       0.12500      0.0000       0.0000      -0.12500     -2.22045E-16 -1.77636E-13
     2      (1,1,3)               0.0000      -6.17284E-07  0.0000       0.12500      0.0000       0.0000      -0.12500     -2.22045E-16 -1.77636E-13
     3      (1,1,4)               0.0000      -6.17284E-07  0.0000       0.12500      0.0000       0.0000      -0.12500     -2.22045E-16 -1.77636E-13
     4      (1,1,5)               0.0000      -6.17284E-07  0.0000       0.12500      0.0000       0.0000      -0.12500     -2.22045E-16 -1.77636E-13
     5      (1,1,6)               0.0000      -6.17284E-07  0.0000       0.12500      0.0000       0.0000      -0.12500     -2.22045E-16 -1.77636E-13
     6      (1,1,7)               0.0000      -6.17284E-07  0.0000       0.12500      0.0000       0.0000      -0.12500     -2.22045E-16 -1.77636E-13
     7      (1,1,8)               0.0000      -6.17284E-07  0.0000       0.12500      0.0000       0.0000      -0.12500     -2.22045E-16 -1.77636E-13
     8      (1,1,9)               0.0000      -6.17284E-07  0.0000       0.12500      0.0000       0.0000      -0.12500     -2.22045E-16 -1.77636E-13
     9      (2,1,2)               6.17284E-07 -6.17284E-07  0.0000       0.0000       0.0000       0.0000       0.0000       0.0000       0.0000     
     10     (2,1,3)               6.17284E-07 -6.17284E-07  0.0000       0.0000       0.0000       0.0000       0.0000       0.0000       0.0000     
     11     (2,1,4)               6.17284E-07 -6.17284E-07  0.0000       0.0000       0.0000       0.0000       0.0000       0.0000       0.0000     
     12     (2,1,5)               6.17284E-07 -6.17284E-07  0.0000       0.0000       0.0000       0.0000       0.0000       0.0000       0.0000     
     13     (2,1,6)               6.17284E-07 -6.17284E-07  0.0000       0.0000       0.0000       0.0000       0.0000       0.0000       0.0000     
     14     (2,1,7)               6.17284E-07 -6.17284E-07  0.0000       0.0000       0.0000       0.0000       0.0000       0.0000       0.0000     
     15     (2,1,8)               6.17284E-07 -6.17284E-07  0.0000       0.0000       0.0000       0.0000       0.0000       0.0000       0.0000     
     16     (2,1,9)               6.17284E-07 -6.17284E-07  0.0000       0.0000       0.0000       0.0000       0.0000       0.0000       0.0000     
     17     (3,1,2)               6.17284E-07  0.0000       0.0000       0.0000       0.0000       0.0000      -6.17284E-07 -2.48617E-17 -4.02759E-09
     18     (3,1,3)               6.17284E-07  0.0000       0.0000       0.0000       0.0000       0.0000      -6.17284E-07  3.75884E-17  6.08931E-09
     19     (3,1,4)               6.17284E-07  0.0000       0.0000       0.0000       0.0000       0.0000      -6.17284E-07 -1.79228E-17 -2.90349E-09
     20     (3,1,5)               6.17284E-07  0.0000       0.0000       0.0000       0.0000       0.0000      -6.17284E-07  2.37106E-17  3.84111E-09
     21     (3,1,6)               6.17284E-07  0.0000       0.0000       0.0000       0.0000       0.0000      -6.17284E-07  2.37106E-17  3.84111E-09
     22     (3,1,7)               6.17284E-07  0.0000       0.0000       0.0000       0.0000       0.0000      -6.17284E-07 -1.79228E-17 -2.90349E-09
     23     (3,1,8)               6.17284E-07  0.0000       0.0000       0.0000       0.0000       0.0000      -6.17284E-07  3.75884E-17  6.08931E-09
     24     (3,1,9)               6.17284E-07  0.0000       0.0000       0.0000       0.0000       0.0000      -6.17284E-07 -2.48617E-17 -4.02759E-09
 ----------------------------------------------------------------------------------------------------------------------------------------------------


1
  HEAD IN LAYER   1 AT END OF TIME STEP   6 IN STRESS PERIOD    1
  ---------------------------------------------------------------------------

                1               2               3               4               5               6               7               8               9              10
 ................................................................................................................................................................
   1     -25.5000        -25.5000        -25.5000        -25.5000        -25.5000        -25.5000        -25.5000        -25.5000        -25.5000        -25.5000    
1
  HEAD IN LAYER   2 AT END OF TIME STEP   6 IN STRESS PERIOD    1
  ---------------------------------------------------------------------------

                1               2               3               4               5               6               7               8               9              10
 ................................................................................................................................................................
   1     -25.5000        -25.5000        -25.5000        -25.5000        -25.5000        -25.5000        -25.5000        -25.5000        -25.5000        -25.5000    
1
  HEAD IN LAYER   3 AT END OF TIME STEP   6 IN STRESS PERIOD    1
  ---------------------------------------------------------------------------

                1               2               3               4               5               6               7               8               9              10
 ................................................................................................................................................................
   1     -25.5000        -25.5000        -25.5000        -25.5000        -25.5000        -25.5000        -25.5000        -25.5000        -25.5000        -25.5000    

 HEAD WILL BE SAVED ON UNIT 1015 AT END OF TIME STEP    6, STRESS PERIOD    1


  UZF_0 BUDGET FOR ENTIRE MODEL AT END OF TIME STEP    6, STRESS PERIOD   1
  ------------------------------------------------------------------------------

     CUMULATIVE UZF_0      L**3       RATES FOR THIS TIME STEP      L**3/T
     ------------------                 ------------------------

           IN:                                      IN:
           ---                                      ---
                 GWF =           0.0000                   GWF =           0.0000
        INFILTRATION =           6.0000          INFILTRATION =           1.0000
             REJ-INF =           0.0000               REJ-INF =           0.0000
                UZET =           0.0000                  UZET =           0.0000
             STORAGE =           0.0000               STORAGE =           0.0000

            TOTAL IN =           6.0000              TOTAL IN =           1.0000

          OUT:                                     OUT:
          ----                                     ----
                 GWF =           0.0000                   GWF =           0.0000
        INFILTRATION =           0.0000          INFILTRATION =           0.0000
             REJ-INF =           0.0000               REJ-INF =           0.0000
                UZET =           0.0000                  UZET =           0.0000
             STORAGE =           6.0000               STORAGE =           1.0000

           TOTAL OUT =           6.0000             TOTAL OUT =           1.0000

            IN - OUT =      -1.7764E-15              IN - OUT =      -1.7764E-15

 PERCENT DISCREPANCY =          -0.00     PERCENT DISCREPANCY =          -0.00



  VOLUME BUDGET FOR ENTIRE MODEL AT END OF TIME STEP    6, STRESS PERIOD   1
  ---------------------------------------------------------------------------------------------------

     CUMULATIVE VOLUME      L**3       RATES FOR THIS TIME STEP      L**3/T          PACKAGE NAME    
     ------------------                 ------------------------                     ----------------

           IN:                                      IN:
           ---                                      ---
              STO-SS =       2.3750E-04                STO-SS =       1.5179E-17     STORAGE                          
              STO-SY =           1.5000                STO-SY =       1.0392E-13     STORAGE                          
                 GHB =           0.0000                   GHB =           0.0000     GHB_0                            
           UZF-GWRCH =           0.0000             UZF-GWRCH =           0.0000     UZF_0                            
             UZF-GWD =           0.0000               UZF-GWD =           0.0000     UZF_0                            
            UZF-GWET =           0.0000              UZF-GWET =           0.0000     UZF_0                            

            TOTAL IN =           1.5002              TOTAL IN =       1.0393E-13

          OUT:                                     OUT:
          ----                                     ----
              STO-SS =           0.0000                STO-SS =           0.0000     STORAGE                          
              STO-SY =           0.0000                STO-SY =           0.0000     STORAGE                          
                 GHB =           1.5002                   GHB =       2.3938E-09     GHB_0                            
           UZF-GWRCH =           0.0000             UZF-GWRCH =           0.0000     UZF_0                            
             UZF-GWD =           0.0000               UZF-GWD =           0.0000     UZF_0                            
            UZF-GWET =           0.0000              UZF-GWET =           0.0000     UZF_0                            

           TOTAL OUT =           1.5002             TOTAL OUT =       2.3938E-09

            IN - OUT =      -1.9581E-09              IN - OUT =      -2.3937E-09

 PERCENT DISCREPANCY =          -0.00     PERCENT DISCREPANCY =        -199.98




         TIME SUMMARY AT END OF TIME STEP    6 IN STRESS PERIOD    1
                    SECONDS     MINUTES      HOURS       DAYS        YEARS
                    -----------------------------------------------------------
   TIME STEP LENGTH  86400.      1440.0      24.000      1.0000     2.73785E-03
 STRESS PERIOD TIME 5.18400E+05  8640.0      144.00      6.0000     1.64271E-02
         TOTAL TIME 5.18400E+05  8640.0      144.00      6.0000     1.64271E-02


end timestep


start timestep kper="1" kstp="7" mode="normal"

 UBDSV1 SAVING           STO-SS ON UNIT   1014 AT TIME STEP      7, STRESS PERIOD      1
 UBDSV1 SAVING           STO-SY ON UNIT   1014 AT TIME STEP      7, STRESS PERIOD      1
 UBDSV1 SAVING     FLOW-JA-FACE ON UNIT   1014 AT TIME STEP      7, STRESS PERIOD      1
 UBDSV06 SAVING              GHB IN MODEL UZF_3LAY_WC_CHK  PACKAGE UZF_3LAY_WC_CHK CONNECTED TO MODEL UZF_3LAY_WC_CHK  PACKAGE GHB_0            ON UNIT   1014 AT TIME STEP      7, STRESS PERIOD      1
 UBDSV06 SAVING        UZF-GWRCH IN MODEL UZF_3LAY_WC_CHK  PACKAGE UZF_3LAY_WC_CHK CONNECTED TO MODEL UZF_3LAY_WC_CHK  PACKAGE UZF_0            ON UNIT   1014 AT TIME STEP      7, STRESS PERIOD      1
 UBDSV06 SAVING          UZF-GWD IN MODEL UZF_3LAY_WC_CHK  PACKAGE UZF_3LAY_WC_CHK CONNECTED TO MODEL UZF_3LAY_WC_CHK  PACKAGE UZF_0            ON UNIT   1014 AT TIME STEP      7, STRESS PERIOD      1
 UBDSV06 SAVING         UZF-GWET IN MODEL UZF_3LAY_WC_CHK  PACKAGE UZF_3LAY_WC_CHK CONNECTED TO MODEL UZF_3LAY_WC_CHK  PACKAGE UZF_0            ON UNIT   1014 AT TIME STEP      7, STRESS PERIOD      1
 UBDSV06 SAVING     FLOW-JA-FACE IN MODEL UZF_3LAY_WC_CHK  PACKAGE UZF_0           CONNECTED TO MODEL UZF_3LAY_WC_CHK  PACKAGE UZF_0            ON UNIT   1011 AT TIME STEP      7, STRESS PERIOD      1
 UBDSV06 SAVING              GWF IN MODEL UZF_3LAY_WC_CHK  PACKAGE UZF_0           CONNECTED TO MODEL UZF_3LAY_WC_CHK  PACKAGE UZF_3LAY_WC_CHK  ON UNIT   1011 AT TIME STEP      7, STRESS PERIOD      1
 UBDSV06 SAVING     INFILTRATION IN MODEL UZF_3LAY_WC_CHK  PACKAGE UZF_0           CONNECTED TO MODEL UZF_3LAY_WC_CHK  PACKAGE UZF_0            ON UNIT   1011 AT TIME STEP      7, STRESS PERIOD      1
 UBDSV06 SAVING          REJ-INF IN MODEL UZF_3LAY_WC_CHK  PACKAGE UZF_0           CONNECTED TO MODEL UZF_3LAY_WC_CHK  PACKAGE UZF_0            ON UNIT   1011 AT TIME STEP      7, STRESS PERIOD      1
 UBDSV06 SAVING             UZET IN MODEL UZF_3LAY_WC_CHK  PACKAGE UZF_0           CONNECTED TO MODEL UZF_3LAY_WC_CHK  PACKAGE UZF_0            ON UNIT   1011 AT TIME STEP      7, STRESS PERIOD      1
 UBDSV06 SAVING          STORAGE IN MODEL UZF_3LAY_WC_CHK  PACKAGE UZF_0           CONNECTED TO MODEL UZF_3LAY_WC_CHK  PACKAGE UZF_0            ON UNIT   1011 AT TIME STEP      7, STRESS PERIOD      1

 GHB PACKAGE (GHB_0) FLOW RATES   PERIOD      1   STEP        7
 -----------------------------------------------
   NUMBER   CELLID                    RATE      
 -----------------------------------------------
     1      (3,1,1)              -1.18961907E-09
     2      (3,1,10)             -1.18961907E-09
 -----------------------------------------------




 UZF-GWRCH PACKAGE (UZF_0) FLOW RATES   PERIOD      1   STEP        7
 ----------------------------------------------------------------------------------------
   NUMBER   CELLID                    RATE       NAME                                    
 ----------------------------------------------------------------------------------------
     1      (1,1,2)               0.0000000      UZF01                                   
     2      (1,1,3)               0.0000000      UZF02                                   
     3      (1,1,4)               0.0000000      UZF03                                   
     4      (1,1,5)               0.0000000      UZF04                                   
     5      (1,1,6)               0.0000000      UZF05                                   
     6      (1,1,7)               0.0000000      UZF06                                   
     7      (1,1,8)               0.0000000      UZF07                                   
     8      (1,1,9)               0.0000000      UZF08                                   
     9      (2,1,2)               0.0000000      UZF09                                   
     10     (2,1,3)               0.0000000      UZF10                                   
     11     (2,1,4)               0.0000000      UZF11                                   
     12     (2,1,5)               0.0000000      UZF12                                   
     13     (2,1,6)               0.0000000      UZF13                                   
     14     (2,1,7)               0.0000000      UZF14                                   
     15     (2,1,8)               0.0000000      UZF15                                   
     16     (2,1,9)               0.0000000      UZF16                                   
     17     (3,1,2)               0.0000000      UZF17                                   
     18     (3,1,3)               0.0000000      UZF18                                   
     19     (3,1,4)               0.0000000      UZF19                                   
     20     (3,1,5)               0.0000000      UZF20                                   
     21     (3,1,6)               0.0000000      UZF21                                   
     22     (3,1,7)               0.0000000      UZF22                                   
     23     (3,1,8)               0.0000000      UZF23                                   
     24     (3,1,9)               0.0000000      UZF24                                   
 ----------------------------------------------------------------------------------------




 UZF-GWD PACKAGE (UZF_0) FLOW RATES   PERIOD      1   STEP        7
 ----------------------------------------------------------------------------------------
   NUMBER   CELLID                    RATE       NAME                                    
 ----------------------------------------------------------------------------------------
     1      (1,1,2)               0.0000000      UZF01                                   
     2      (1,1,3)               0.0000000      UZF02                                   
     3      (1,1,4)               0.0000000      UZF03                                   
     4      (1,1,5)               0.0000000      UZF04                                   
     5      (1,1,6)               0.0000000      UZF05                                   
     6      (1,1,7)               0.0000000      UZF06                                   
     7      (1,1,8)               0.0000000      UZF07                                   
     8      (1,1,9)               0.0000000      UZF08                                   
     9      (2,1,2)               -0.0000000     UZF09                                   
     10     (2,1,3)               -0.0000000     UZF10                                   
     11     (2,1,4)               -0.0000000     UZF11                                   
     12     (2,1,5)               -0.0000000     UZF12                                   
     13     (2,1,6)               -0.0000000     UZF13                                   
     14     (2,1,7)               -0.0000000     UZF14                                   
     15     (2,1,8)               -0.0000000     UZF15                                   
     16     (2,1,9)               -0.0000000     UZF16                                   
     17     (3,1,2)               -0.0000000     UZF17                                   
     18     (3,1,3)               -0.0000000     UZF18                                   
     19     (3,1,4)               -0.0000000     UZF19                                   
     20     (3,1,5)               -0.0000000     UZF20                                   
     21     (3,1,6)               -0.0000000     UZF21                                   
     22     (3,1,7)               -0.0000000     UZF22                                   
     23     (3,1,8)               -0.0000000     UZF23                                   
     24     (3,1,9)               -0.0000000     UZF24                                   
 ----------------------------------------------------------------------------------------




 UZF-GWET PACKAGE (UZF_0) FLOW RATES   PERIOD      1   STEP        7
 ----------------------------------------------------------------------------------------
   NUMBER   CELLID                    RATE       NAME                                    
 ----------------------------------------------------------------------------------------
     1      (1,1,2)               -0.0000000     UZF01                                   
     2      (1,1,3)               -0.0000000     UZF02                                   
     3      (1,1,4)               -0.0000000     UZF03                                   
     4      (1,1,5)               -0.0000000     UZF04                                   
     5      (1,1,6)               -0.0000000     UZF05                                   
     6      (1,1,7)               -0.0000000     UZF06                                   
     7      (1,1,8)               -0.0000000     UZF07                                   
     8      (1,1,9)               -0.0000000     UZF08                                   
     9      (2,1,2)               -0.0000000     UZF09                                   
     10     (2,1,3)               -0.0000000     UZF10                                   
     11     (2,1,4)               -0.0000000     UZF11                                   
     12     (2,1,5)               -0.0000000     UZF12                                   
     13     (2,1,6)               -0.0000000     UZF13                                   
     14     (2,1,7)               -0.0000000     UZF14                                   
     15     (2,1,8)               -0.0000000     UZF15                                   
     16     (2,1,9)               -0.0000000     UZF16                                   
     17     (3,1,2)               -0.0000000     UZF17                                   
     18     (3,1,3)               -0.0000000     UZF18                                   
     19     (3,1,4)               -0.0000000     UZF19                                   
     20     (3,1,5)               -0.0000000     UZF20                                   
     21     (3,1,6)               -0.0000000     UZF21                                   
     22     (3,1,7)               -0.0000000     UZF22                                   
     23     (3,1,8)               -0.0000000     UZF23                                   
     24     (3,1,9)               -0.0000000     UZF24                                   
 ----------------------------------------------------------------------------------------




 UZF_0 PACKAGE - SUMMARY OF FLOWS FOR EACH CONTROL VOLUME   PERIOD      1   STEP        7
 ----------------------------------------------------------------------------------------------------------------------------------------------------
                                                                                                                                           PERCENT   
   NUMBER   CELLID                  INFLOW      OUTFLOW        GWF      INFILTRATION   REJ INF        UZET       STORAGE      IN - OUT    DIFFERENCE 
 ----------------------------------------------------------------------------------------------------------------------------------------------------
     1      (1,1,2)               0.0000      -6.17284E-07  0.0000       0.12500      0.0000       0.0000      -0.12500      0.0000       0.0000     
     2      (1,1,3)               0.0000      -6.17284E-07  0.0000       0.12500      0.0000       0.0000      -0.12500      0.0000       0.0000     
     3      (1,1,4)               0.0000      -6.17284E-07  0.0000       0.12500      0.0000       0.0000      -0.12500      0.0000       0.0000     
     4      (1,1,5)               0.0000      -6.17284E-07  0.0000       0.12500      0.0000       0.0000      -0.12500      0.0000       0.0000     
     5      (1,1,6)               0.0000      -6.17284E-07  0.0000       0.12500      0.0000       0.0000      -0.12500      0.0000       0.0000     
     6      (1,1,7)               0.0000      -6.17284E-07  0.0000       0.12500      0.0000       0.0000      -0.12500      0.0000       0.0000     
     7      (1,1,8)               0.0000      -6.17284E-07  0.0000       0.12500      0.0000       0.0000      -0.12500      0.0000       0.0000     
     8      (1,1,9)               0.0000      -6.17284E-07  0.0000       0.12500      0.0000       0.0000      -0.12500      0.0000       0.0000     
     9      (2,1,2)               6.17284E-07 -6.17284E-07  0.0000       0.0000       0.0000       0.0000       0.0000       0.0000       0.0000     
     10     (2,1,3)               6.17284E-07 -6.17284E-07  0.0000       0.0000       0.0000       0.0000       0.0000       0.0000       0.0000     
     11     (2,1,4)               6.17284E-07 -6.17284E-07  0.0000       0.0000       0.0000       0.0000       0.0000       0.0000       0.0000     
     12     (2,1,5)               6.17284E-07 -6.17284E-07  0.0000       0.0000       0.0000       0.0000       0.0000       0.0000       0.0000     
     13     (2,1,6)               6.17284E-07 -6.17284E-07  0.0000       0.0000       0.0000       0.0000       0.0000       0.0000       0.0000     
     14     (2,1,7)               6.17284E-07 -6.17284E-07  0.0000       0.0000       0.0000       0.0000       0.0000       0.0000       0.0000     
     15     (2,1,8)               6.17284E-07 -6.17284E-07  0.0000       0.0000       0.0000       0.0000       0.0000       0.0000       0.0000     
     16     (2,1,9)               6.17284E-07 -6.17284E-07  0.0000       0.0000       0.0000       0.0000       0.0000       0.0000       0.0000     
     17     (3,1,2)               6.17284E-07  0.0000       0.0000       0.0000       0.0000       0.0000      -6.17284E-07  1.67717E-17  2.71701E-09
     18     (3,1,3)               6.17284E-07  0.0000       0.0000       0.0000       0.0000       0.0000      -6.17284E-07 -1.09839E-17 -1.77939E-09
     19     (3,1,4)               6.17284E-07  0.0000       0.0000       0.0000       0.0000       0.0000      -6.17284E-07  9.83278E-18  1.59291E-09
     20     (3,1,5)               6.17284E-07  0.0000       0.0000       0.0000       0.0000       0.0000      -6.17284E-07 -1.79228E-17 -2.90349E-09
     21     (3,1,6)               6.17284E-07  0.0000       0.0000       0.0000       0.0000       0.0000      -6.17284E-07 -1.79228E-17 -2.90349E-09
     22     (3,1,7)               6.17284E-07  0.0000       0.0000       0.0000       0.0000       0.0000      -6.17284E-07  9.83278E-18  1.59291E-09
     23     (3,1,8)               6.17284E-07  0.0000       0.0000       0.0000       0.0000       0.0000      -6.17284E-07 -1.09839E-17 -1.77939E-09
     24     (3,1,9)               6.17284E-07  0.0000       0.0000       0.0000       0.0000       0.0000      -6.17284E-07  1.67717E-17  2.71701E-09
 ----------------------------------------------------------------------------------------------------------------------------------------------------


1
  HEAD IN LAYER   1 AT END OF TIME STEP   7 IN STRESS PERIOD    1
  ---------------------------------------------------------------------------

                1               2               3               4               5               6               7               8               9              10
 ................................................................................................................................................................
   1     -25.5000        -25.5000        -25.5000        -25.5000        -25.5000        -25.5000        -25.5000        -25.5000        -25.5000        -25.5000    
1
  HEAD IN LAYER   2 AT END OF TIME STEP   7 IN STRESS PERIOD    1
  ---------------------------------------------------------------------------

                1               2               3               4               5               6               7               8               9              10
 ................................................................................................................................................................
   1     -25.5000        -25.5000        -25.5000        -25.5000        -25.5000        -25.5000        -25.5000        -25.5000        -25.5000        -25.5000    
1
  HEAD IN LAYER   3 AT END OF TIME STEP   7 IN STRESS PERIOD    1
  ---------------------------------------------------------------------------

                1               2               3               4               5               6               7               8               9              10
 ................................................................................................................................................................
   1     -25.5000        -25.5000        -25.5000        -25.5000        -25.5000        -25.5000        -25.5000        -25.5000        -25.5000        -25.5000    

 HEAD WILL BE SAVED ON UNIT 1015 AT END OF TIME STEP    7, STRESS PERIOD    1


  UZF_0 BUDGET FOR ENTIRE MODEL AT END OF TIME STEP    7, STRESS PERIOD   1
  ------------------------------------------------------------------------------

     CUMULATIVE UZF_0      L**3       RATES FOR THIS TIME STEP      L**3/T
     ------------------                 ------------------------

           IN:                                      IN:
           ---                                      ---
                 GWF =           0.0000                   GWF =           0.0000
        INFILTRATION =           7.0000          INFILTRATION =           1.0000
             REJ-INF =           0.0000               REJ-INF =           0.0000
                UZET =           0.0000                  UZET =           0.0000
             STORAGE =           0.0000               STORAGE =           0.0000

            TOTAL IN =           7.0000              TOTAL IN =           1.0000

          OUT:                                     OUT:
          ----                                     ----
                 GWF =           0.0000                   GWF =           0.0000
        INFILTRATION =           0.0000          INFILTRATION =           0.0000
             REJ-INF =           0.0000               REJ-INF =           0.0000
                UZET =           0.0000                  UZET =           0.0000
             STORAGE =           7.0000               STORAGE =           1.0000

           TOTAL OUT =           7.0000             TOTAL OUT =           1.0000

            IN - OUT =      -1.7764E-15              IN - OUT =           0.0000

 PERCENT DISCREPANCY =          -0.00     PERCENT DISCREPANCY =           0.00



  VOLUME BUDGET FOR ENTIRE MODEL AT END OF TIME STEP    7, STRESS PERIOD   1
  ---------------------------------------------------------------------------------------------------

     CUMULATIVE VOLUME      L**3       RATES FOR THIS TIME STEP      L**3/T          PACKAGE NAME    
     ------------------                 ------------------------                     ----------------

           IN:                                      IN:
           ---                                      ---
              STO-SS =       2.3750E-04                STO-SS =       1.5613E-17     STORAGE                          
              STO-SY =           1.5000                STO-SY =       1.0081E-13     STORAGE                          
                 GHB =           0.0000                   GHB =           0.0000     GHB_0                            
           UZF-GWRCH =           0.0000             UZF-GWRCH =           0.0000     UZF_0                            
             UZF-GWD =           0.0000               UZF-GWD =           0.0000     UZF_0                            
            UZF-GWET =           0.0000              UZF-GWET =           0.0000     UZF_0                            

            TOTAL IN =           1.5002              TOTAL IN =       1.0082E-13

          OUT:                                     OUT:
          ----                                     ----
              STO-SS =           0.0000                STO-SS =           0.0000     STORAGE                          
              STO-SY =           0.0000                STO-SY =           0.0000     STORAGE                          
                 GHB =           1.5002                   GHB =       2.3792E-09     GHB_0                            
           UZF-GWRCH =           0.0000             UZF-GWRCH =           0.0000     UZF_0                            
             UZF-GWD =           0.0000               UZF-GWD =           0.0000     UZF_0                            
            UZF-GWET =           0.0000              UZF-GWET =           0.0000     UZF_0                            

           TOTAL OUT =           1.5002             TOTAL OUT =       2.3792E-09

            IN - OUT =      -4.3373E-09              IN - OUT =      -2.3791E-09

 PERCENT DISCREPANCY =          -0.00     PERCENT DISCREPANCY =        -199.98




         TIME SUMMARY AT END OF TIME STEP    7 IN STRESS PERIOD    1
                    SECONDS     MINUTES      HOURS       DAYS        YEARS
                    -----------------------------------------------------------
   TIME STEP LENGTH  86400.      1440.0      24.000      1.0000     2.73785E-03
 STRESS PERIOD TIME 6.04800E+05  10080.      168.00      7.0000     1.91650E-02
         TOTAL TIME 6.04800E+05  10080.      168.00      7.0000     1.91650E-02


end timestep


start timestep kper="1" kstp="8" mode="normal"

 UBDSV1 SAVING           STO-SS ON UNIT   1014 AT TIME STEP      8, STRESS PERIOD      1
 UBDSV1 SAVING           STO-SY ON UNIT   1014 AT TIME STEP      8, STRESS PERIOD      1
 UBDSV1 SAVING     FLOW-JA-FACE ON UNIT   1014 AT TIME STEP      8, STRESS PERIOD      1
 UBDSV06 SAVING              GHB IN MODEL UZF_3LAY_WC_CHK  PACKAGE UZF_3LAY_WC_CHK CONNECTED TO MODEL UZF_3LAY_WC_CHK  PACKAGE GHB_0            ON UNIT   1014 AT TIME STEP      8, STRESS PERIOD      1
 UBDSV06 SAVING        UZF-GWRCH IN MODEL UZF_3LAY_WC_CHK  PACKAGE UZF_3LAY_WC_CHK CONNECTED TO MODEL UZF_3LAY_WC_CHK  PACKAGE UZF_0            ON UNIT   1014 AT TIME STEP      8, STRESS PERIOD      1
 UBDSV06 SAVING          UZF-GWD IN MODEL UZF_3LAY_WC_CHK  PACKAGE UZF_3LAY_WC_CHK CONNECTED TO MODEL UZF_3LAY_WC_CHK  PACKAGE UZF_0            ON UNIT   1014 AT TIME STEP      8, STRESS PERIOD      1
 UBDSV06 SAVING         UZF-GWET IN MODEL UZF_3LAY_WC_CHK  PACKAGE UZF_3LAY_WC_CHK CONNECTED TO MODEL UZF_3LAY_WC_CHK  PACKAGE UZF_0            ON UNIT   1014 AT TIME STEP      8, STRESS PERIOD      1
 UBDSV06 SAVING     FLOW-JA-FACE IN MODEL UZF_3LAY_WC_CHK  PACKAGE UZF_0           CONNECTED TO MODEL UZF_3LAY_WC_CHK  PACKAGE UZF_0            ON UNIT   1011 AT TIME STEP      8, STRESS PERIOD      1
 UBDSV06 SAVING              GWF IN MODEL UZF_3LAY_WC_CHK  PACKAGE UZF_0           CONNECTED TO MODEL UZF_3LAY_WC_CHK  PACKAGE UZF_3LAY_WC_CHK  ON UNIT   1011 AT TIME STEP      8, STRESS PERIOD      1
 UBDSV06 SAVING     INFILTRATION IN MODEL UZF_3LAY_WC_CHK  PACKAGE UZF_0           CONNECTED TO MODEL UZF_3LAY_WC_CHK  PACKAGE UZF_0            ON UNIT   1011 AT TIME STEP      8, STRESS PERIOD      1
 UBDSV06 SAVING          REJ-INF IN MODEL UZF_3LAY_WC_CHK  PACKAGE UZF_0           CONNECTED TO MODEL UZF_3LAY_WC_CHK  PACKAGE UZF_0            ON UNIT   1011 AT TIME STEP      8, STRESS PERIOD      1
 UBDSV06 SAVING             UZET IN MODEL UZF_3LAY_WC_CHK  PACKAGE UZF_0           CONNECTED TO MODEL UZF_3LAY_WC_CHK  PACKAGE UZF_0            ON UNIT   1011 AT TIME STEP      8, STRESS PERIOD      1
 UBDSV06 SAVING          STORAGE IN MODEL UZF_3LAY_WC_CHK  PACKAGE UZF_0           CONNECTED TO MODEL UZF_3LAY_WC_CHK  PACKAGE UZF_0            ON UNIT   1011 AT TIME STEP      8, STRESS PERIOD      1

 GHB PACKAGE (GHB_0) FLOW RATES   PERIOD      1   STEP        8
 -----------------------------------------------
   NUMBER   CELLID                    RATE      
 -----------------------------------------------
     1      (3,1,1)              -1.18234311E-09
     2      (3,1,10)             -1.18234311E-09
 -----------------------------------------------




 UZF-GWRCH PACKAGE (UZF_0) FLOW RATES   PERIOD      1   STEP        8
 ----------------------------------------------------------------------------------------
   NUMBER   CELLID                    RATE       NAME                                    
 ----------------------------------------------------------------------------------------
     1      (1,1,2)               0.0000000      UZF01                                   
     2      (1,1,3)               0.0000000      UZF02                                   
     3      (1,1,4)               0.0000000      UZF03                                   
     4      (1,1,5)               0.0000000      UZF04                                   
     5      (1,1,6)               0.0000000      UZF05                                   
     6      (1,1,7)               0.0000000      UZF06                                   
     7      (1,1,8)               0.0000000      UZF07                                   
     8      (1,1,9)               0.0000000      UZF08                                   
     9      (2,1,2)               0.0000000      UZF09                                   
     10     (2,1,3)               0.0000000      UZF10                                   
     11     (2,1,4)               0.0000000      UZF11                                   
     12     (2,1,5)               0.0000000      UZF12                                   
     13     (2,1,6)               0.0000000      UZF13                                   
     14     (2,1,7)               0.0000000      UZF14                                   
     15     (2,1,8)               0.0000000      UZF15                                   
     16     (2,1,9)               0.0000000      UZF16                                   
     17     (3,1,2)               0.0000000      UZF17                                   
     18     (3,1,3)               0.0000000      UZF18                                   
     19     (3,1,4)               0.0000000      UZF19                                   
     20     (3,1,5)               0.0000000      UZF20                                   
     21     (3,1,6)               0.0000000      UZF21                                   
     22     (3,1,7)               0.0000000      UZF22                                   
     23     (3,1,8)               0.0000000      UZF23                                   
     24     (3,1,9)               0.0000000      UZF24                                   
 ----------------------------------------------------------------------------------------




 UZF-GWD PACKAGE (UZF_0) FLOW RATES   PERIOD      1   STEP        8
 ----------------------------------------------------------------------------------------
   NUMBER   CELLID                    RATE       NAME                                    
 ----------------------------------------------------------------------------------------
     1      (1,1,2)               0.0000000      UZF01                                   
     2      (1,1,3)               0.0000000      UZF02                                   
     3      (1,1,4)               0.0000000      UZF03                                   
     4      (1,1,5)               0.0000000      UZF04                                   
     5      (1,1,6)               0.0000000      UZF05                                   
     6      (1,1,7)               0.0000000      UZF06                                   
     7      (1,1,8)               0.0000000      UZF07                                   
     8      (1,1,9)               0.0000000      UZF08                                   
     9      (2,1,2)               -0.0000000     UZF09                                   
     10     (2,1,3)               -0.0000000     UZF10                                   
     11     (2,1,4)               -0.0000000     UZF11                                   
     12     (2,1,5)               -0.0000000     UZF12                                   
     13     (2,1,6)               -0.0000000     UZF13                                   
     14     (2,1,7)               -0.0000000     UZF14                                   
     15     (2,1,8)               -0.0000000     UZF15                                   
     16     (2,1,9)               -0.0000000     UZF16                                   
     17     (3,1,2)               -0.0000000     UZF17                                   
     18     (3,1,3)               -0.0000000     UZF18                                   
     19     (3,1,4)               -0.0000000     UZF19                                   
     20     (3,1,5)               -0.0000000     UZF20                                   
     21     (3,1,6)               -0.0000000     UZF21                                   
     22     (3,1,7)               -0.0000000     UZF22                                   
     23     (3,1,8)               -0.0000000     UZF23                                   
     24     (3,1,9)               -0.0000000     UZF24                                   
 ----------------------------------------------------------------------------------------




 UZF-GWET PACKAGE (UZF_0) FLOW RATES   PERIOD      1   STEP        8
 ----------------------------------------------------------------------------------------
   NUMBER   CELLID                    RATE       NAME                                    
 ----------------------------------------------------------------------------------------
     1      (1,1,2)               -0.0000000     UZF01                                   
     2      (1,1,3)               -0.0000000     UZF02                                   
     3      (1,1,4)               -0.0000000     UZF03                                   
     4      (1,1,5)               -0.0000000     UZF04                                   
     5      (1,1,6)               -0.0000000     UZF05                                   
     6      (1,1,7)               -0.0000000     UZF06                                   
     7      (1,1,8)               -0.0000000     UZF07                                   
     8      (1,1,9)               -0.0000000     UZF08                                   
     9      (2,1,2)               -0.0000000     UZF09                                   
     10     (2,1,3)               -0.0000000     UZF10                                   
     11     (2,1,4)               -0.0000000     UZF11                                   
     12     (2,1,5)               -0.0000000     UZF12                                   
     13     (2,1,6)               -0.0000000     UZF13                                   
     14     (2,1,7)               -0.0000000     UZF14                                   
     15     (2,1,8)               -0.0000000     UZF15                                   
     16     (2,1,9)               -0.0000000     UZF16                                   
     17     (3,1,2)               -0.0000000     UZF17                                   
     18     (3,1,3)               -0.0000000     UZF18                                   
     19     (3,1,4)               -0.0000000     UZF19                                   
     20     (3,1,5)               -0.0000000     UZF20                                   
     21     (3,1,6)               -0.0000000     UZF21                                   
     22     (3,1,7)               -0.0000000     UZF22                                   
     23     (3,1,8)               -0.0000000     UZF23                                   
     24     (3,1,9)               -0.0000000     UZF24                                   
 ----------------------------------------------------------------------------------------




 UZF_0 PACKAGE - SUMMARY OF FLOWS FOR EACH CONTROL VOLUME   PERIOD      1   STEP        8
 ----------------------------------------------------------------------------------------------------------------------------------------------------
                                                                                                                                           PERCENT   
   NUMBER   CELLID                  INFLOW      OUTFLOW        GWF      INFILTRATION   REJ INF        UZET       STORAGE      IN - OUT    DIFFERENCE 
 ----------------------------------------------------------------------------------------------------------------------------------------------------
     1      (1,1,2)               0.0000      -9.04015E-02  0.0000       0.12500      0.0000       0.0000      -3.45985E-02  2.08167E-16  1.66533E-13
     2      (1,1,3)               0.0000      -9.04015E-02  0.0000       0.12500      0.0000       0.0000      -3.45985E-02  2.08167E-16  1.66533E-13
     3      (1,1,4)               0.0000      -9.04015E-02  0.0000       0.12500      0.0000       0.0000      -3.45985E-02  2.08167E-16  1.66533E-13
     4      (1,1,5)               0.0000      -9.04015E-02  0.0000       0.12500      0.0000       0.0000      -3.45985E-02  2.08167E-16  1.66533E-13
     5      (1,1,6)               0.0000      -9.04015E-02  0.0000       0.12500      0.0000       0.0000      -3.45985E-02  2.08167E-16  1.66533E-13
     6      (1,1,7)               0.0000      -9.04015E-02  0.0000       0.12500      0.0000       0.0000      -3.45985E-02  2.08167E-16  1.66533E-13
     7      (1,1,8)               0.0000      -9.04015E-02  0.0000       0.12500      0.0000       0.0000      -3.45985E-02  2.08167E-16  1.66533E-13
     8      (1,1,9)               0.0000      -9.04015E-02  0.0000       0.12500      0.0000       0.0000      -3.45985E-02  2.08167E-16  1.66533E-13
     9      (2,1,2)               9.04015E-02 -6.17284E-07  0.0000       0.0000       0.0000       0.0000      -9.04009E-02 -4.16334E-17 -4.60538E-14
     10     (2,1,3)               9.04015E-02 -6.17284E-07  0.0000       0.0000       0.0000       0.0000      -9.04009E-02 -4.16334E-17 -4.60538E-14
     11     (2,1,4)               9.04015E-02 -6.17284E-07  0.0000       0.0000       0.0000       0.0000      -9.04009E-02 -4.16334E-17 -4.60538E-14
     12     (2,1,5)               9.04015E-02 -6.17284E-07  0.0000       0.0000       0.0000       0.0000      -9.04009E-02 -4.16334E-17 -4.60538E-14
     13     (2,1,6)               9.04015E-02 -6.17284E-07  0.0000       0.0000       0.0000       0.0000      -9.04009E-02 -4.16334E-17 -4.60538E-14
     14     (2,1,7)               9.04015E-02 -6.17284E-07  0.0000       0.0000       0.0000       0.0000      -9.04009E-02 -4.16334E-17 -4.60538E-14
     15     (2,1,8)               9.04015E-02 -6.17284E-07  0.0000       0.0000       0.0000       0.0000      -9.04009E-02 -4.16334E-17 -4.60538E-14
     16     (2,1,9)               9.04015E-02 -6.17284E-07  0.0000       0.0000       0.0000       0.0000      -9.04009E-02 -4.16334E-17 -4.60538E-14
     17     (3,1,2)               6.17284E-07  0.0000       0.0000       0.0000       0.0000       0.0000      -6.17284E-07 -2.48617E-17 -4.02759E-09
     18     (3,1,3)               6.17284E-07  0.0000       0.0000       0.0000       0.0000       0.0000      -6.17284E-07 -4.04501E-18 -6.55291E-10
     19     (3,1,4)               6.17284E-07  0.0000       0.0000       0.0000       0.0000       0.0000      -6.17284E-07 -2.48617E-17 -4.02759E-09
     20     (3,1,5)               6.17284E-07  0.0000       0.0000       0.0000       0.0000       0.0000      -6.17284E-07 -1.09839E-17 -1.77939E-09
     21     (3,1,6)               6.17284E-07  0.0000       0.0000       0.0000       0.0000       0.0000      -6.17284E-07 -1.09839E-17 -1.77939E-09
     22     (3,1,7)               6.17284E-07  0.0000       0.0000       0.0000       0.0000       0.0000      -6.17284E-07 -2.48617E-17 -4.02759E-09
     23     (3,1,8)               6.17284E-07  0.0000       0.0000       0.0000       0.0000       0.0000      -6.17284E-07 -4.04501E-18 -6.55291E-10
     24     (3,1,9)               6.17284E-07  0.0000       0.0000       0.0000       0.0000       0.0000      -6.17284E-07 -2.48617E-17 -4.02759E-09
 ----------------------------------------------------------------------------------------------------------------------------------------------------


1
  HEAD IN LAYER   1 AT END OF TIME STEP   8 IN STRESS PERIOD    1
  ---------------------------------------------------------------------------

                1               2               3               4               5               6               7               8               9              10
 ................................................................................................................................................................
   1     -25.5000        -25.5000        -25.5000        -25.5000        -25.5000        -25.5000        -25.5000        -25.5000        -25.5000        -25.5000    
1
  HEAD IN LAYER   2 AT END OF TIME STEP   8 IN STRESS PERIOD    1
  ---------------------------------------------------------------------------

                1               2               3               4               5               6               7               8               9              10
 ................................................................................................................................................................
   1     -25.5000        -25.5000        -25.5000        -25.5000        -25.5000        -25.5000        -25.5000        -25.5000        -25.5000        -25.5000    
1
  HEAD IN LAYER   3 AT END OF TIME STEP   8 IN STRESS PERIOD    1
  ---------------------------------------------------------------------------

                1               2               3               4               5               6               7               8               9              10
 ................................................................................................................................................................
   1     -25.5000        -25.5000        -25.5000        -25.5000        -25.5000        -25.5000        -25.5000        -25.5000        -25.5000        -25.5000    

 HEAD WILL BE SAVED ON UNIT 1015 AT END OF TIME STEP    8, STRESS PERIOD    1


  UZF_0 BUDGET FOR ENTIRE MODEL AT END OF TIME STEP    8, STRESS PERIOD   1
  ------------------------------------------------------------------------------

     CUMULATIVE UZF_0      L**3       RATES FOR THIS TIME STEP      L**3/T
     ------------------                 ------------------------

           IN:                                      IN:
           ---                                      ---
                 GWF =           0.0000                   GWF =           0.0000
        INFILTRATION =           8.0000          INFILTRATION =           1.0000
             REJ-INF =           0.0000               REJ-INF =           0.0000
                UZET =           0.0000                  UZET =           0.0000
             STORAGE =           0.0000               STORAGE =           0.0000

            TOTAL IN =           8.0000              TOTAL IN =           1.0000

          OUT:                                     OUT:
          ----                                     ----
                 GWF =           0.0000                   GWF =           0.0000
        INFILTRATION =           0.0000          INFILTRATION =           0.0000
             REJ-INF =           0.0000               REJ-INF =           0.0000
                UZET =           0.0000                  UZET =           0.0000
             STORAGE =           8.0000               STORAGE =           1.0000

           TOTAL OUT =           8.0000             TOTAL OUT =           1.0000

            IN - OUT =           0.0000              IN - OUT =       1.5543E-15

 PERCENT DISCREPANCY =           0.00     PERCENT DISCREPANCY =           0.00



  VOLUME BUDGET FOR ENTIRE MODEL AT END OF TIME STEP    8, STRESS PERIOD   1
  ---------------------------------------------------------------------------------------------------

     CUMULATIVE VOLUME      L**3       RATES FOR THIS TIME STEP      L**3/T          PACKAGE NAME    
     ------------------                 ------------------------                     ----------------

           IN:                                      IN:
           ---                                      ---
              STO-SS =       2.3750E-04                STO-SS =       1.4311E-17     STORAGE                          
              STO-SY =           1.5000                STO-SY =       9.9920E-14     STORAGE                          
                 GHB =           0.0000                   GHB =           0.0000     GHB_0                            
           UZF-GWRCH =           0.0000             UZF-GWRCH =           0.0000     UZF_0                            
             UZF-GWD =           0.0000               UZF-GWD =           0.0000     UZF_0                            
            UZF-GWET =           0.0000              UZF-GWET =           0.0000     UZF_0                            

            TOTAL IN =           1.5002              TOTAL IN =       9.9934E-14

          OUT:                                     OUT:
          ----                                     ----
              STO-SS =           0.0000                STO-SS =           0.0000     STORAGE                          
              STO-SY =           0.0000                STO-SY =           0.0000     STORAGE                          
                 GHB =           1.5002                   GHB =       2.3647E-09     GHB_0                            
           UZF-GWRCH =           0.0000             UZF-GWRCH =           0.0000     UZF_0                            
             UZF-GWD =           0.0000               UZF-GWD =           0.0000     UZF_0                            
            UZF-GWET =           0.0000              UZF-GWET =           0.0000     UZF_0                            

           TOTAL OUT =           1.5002             TOTAL OUT =       2.3647E-09

            IN - OUT =      -6.7018E-09              IN - OUT =      -2.3646E-09

 PERCENT DISCREPANCY =          -0.00     PERCENT DISCREPANCY =        -199.98




         TIME SUMMARY AT END OF TIME STEP    8 IN STRESS PERIOD    1
                    SECONDS     MINUTES      HOURS       DAYS        YEARS
                    -----------------------------------------------------------
   TIME STEP LENGTH  86400.      1440.0      24.000      1.0000     2.73785E-03
 STRESS PERIOD TIME 6.91200E+05  11520.      192.00      8.0000     2.19028E-02
         TOTAL TIME 6.91200E+05  11520.      192.00      8.0000     2.19028E-02


end timestep


start timestep kper="1" kstp="9" mode="normal"

 UBDSV1 SAVING           STO-SS ON UNIT   1014 AT TIME STEP      9, STRESS PERIOD      1
 UBDSV1 SAVING           STO-SY ON UNIT   1014 AT TIME STEP      9, STRESS PERIOD      1
 UBDSV1 SAVING     FLOW-JA-FACE ON UNIT   1014 AT TIME STEP      9, STRESS PERIOD      1
 UBDSV06 SAVING              GHB IN MODEL UZF_3LAY_WC_CHK  PACKAGE UZF_3LAY_WC_CHK CONNECTED TO MODEL UZF_3LAY_WC_CHK  PACKAGE GHB_0            ON UNIT   1014 AT TIME STEP      9, STRESS PERIOD      1
 UBDSV06 SAVING        UZF-GWRCH IN MODEL UZF_3LAY_WC_CHK  PACKAGE UZF_3LAY_WC_CHK CONNECTED TO MODEL UZF_3LAY_WC_CHK  PACKAGE UZF_0            ON UNIT   1014 AT TIME STEP      9, STRESS PERIOD      1
 UBDSV06 SAVING          UZF-GWD IN MODEL UZF_3LAY_WC_CHK  PACKAGE UZF_3LAY_WC_CHK CONNECTED TO MODEL UZF_3LAY_WC_CHK  PACKAGE UZF_0            ON UNIT   1014 AT TIME STEP      9, STRESS PERIOD      1
 UBDSV06 SAVING         UZF-GWET IN MODEL UZF_3LAY_WC_CHK  PACKAGE UZF_3LAY_WC_CHK CONNECTED TO MODEL UZF_3LAY_WC_CHK  PACKAGE UZF_0            ON UNIT   1014 AT TIME STEP      9, STRESS PERIOD      1
 UBDSV06 SAVING     FLOW-JA-FACE IN MODEL UZF_3LAY_WC_CHK  PACKAGE UZF_0           CONNECTED TO MODEL UZF_3LAY_WC_CHK  PACKAGE UZF_0            ON UNIT   1011 AT TIME STEP      9, STRESS PERIOD      1
 UBDSV06 SAVING              GWF IN MODEL UZF_3LAY_WC_CHK  PACKAGE UZF_0           CONNECTED TO MODEL UZF_3LAY_WC_CHK  PACKAGE UZF_3LAY_WC_CHK  ON UNIT   1011 AT TIME STEP      9, STRESS PERIOD      1
 UBDSV06 SAVING     INFILTRATION IN MODEL UZF_3LAY_WC_CHK  PACKAGE UZF_0           CONNECTED TO MODEL UZF_3LAY_WC_CHK  PACKAGE UZF_0            ON UNIT   1011 AT TIME STEP      9, STRESS PERIOD      1
 UBDSV06 SAVING          REJ-INF IN MODEL UZF_3LAY_WC_CHK  PACKAGE UZF_0           CONNECTED TO MODEL UZF_3LAY_WC_CHK  PACKAGE UZF_0            ON UNIT   1011 AT TIME STEP      9, STRESS PERIOD      1
 UBDSV06 SAVING             UZET IN MODEL UZF_3LAY_WC_CHK  PACKAGE UZF_0           CONNECTED TO MODEL UZF_3LAY_WC_CHK  PACKAGE UZF_0            ON UNIT   1011 AT TIME STEP      9, STRESS PERIOD      1
 UBDSV06 SAVING          STORAGE IN MODEL UZF_3LAY_WC_CHK  PACKAGE UZF_0           CONNECTED TO MODEL UZF_3LAY_WC_CHK  PACKAGE UZF_0            ON UNIT   1011 AT TIME STEP      9, STRESS PERIOD      1

 GHB PACKAGE (GHB_0) FLOW RATES   PERIOD      1   STEP        9
 -----------------------------------------------
   NUMBER   CELLID                    RATE      
 -----------------------------------------------
     1      (3,1,1)              -1.17506715E-09
     2      (3,1,10)             -1.17506715E-09
 -----------------------------------------------




 UZF-GWRCH PACKAGE (UZF_0) FLOW RATES   PERIOD      1   STEP        9
 ----------------------------------------------------------------------------------------
   NUMBER   CELLID                    RATE       NAME                                    
 ----------------------------------------------------------------------------------------
     1      (1,1,2)               0.0000000      UZF01                                   
     2      (1,1,3)               0.0000000      UZF02                                   
     3      (1,1,4)               0.0000000      UZF03                                   
     4      (1,1,5)               0.0000000      UZF04                                   
     5      (1,1,6)               0.0000000      UZF05                                   
     6      (1,1,7)               0.0000000      UZF06                                   
     7      (1,1,8)               0.0000000      UZF07                                   
     8      (1,1,9)               0.0000000      UZF08                                   
     9      (2,1,2)               0.0000000      UZF09                                   
     10     (2,1,3)               0.0000000      UZF10                                   
     11     (2,1,4)               0.0000000      UZF11                                   
     12     (2,1,5)               0.0000000      UZF12                                   
     13     (2,1,6)               0.0000000      UZF13                                   
     14     (2,1,7)               0.0000000      UZF14                                   
     15     (2,1,8)               0.0000000      UZF15                                   
     16     (2,1,9)               0.0000000      UZF16                                   
     17     (3,1,2)               0.0000000      UZF17                                   
     18     (3,1,3)               0.0000000      UZF18                                   
     19     (3,1,4)               0.0000000      UZF19                                   
     20     (3,1,5)               0.0000000      UZF20                                   
     21     (3,1,6)               0.0000000      UZF21                                   
     22     (3,1,7)               0.0000000      UZF22                                   
     23     (3,1,8)               0.0000000      UZF23                                   
     24     (3,1,9)               0.0000000      UZF24                                   
 ----------------------------------------------------------------------------------------




 UZF-GWD PACKAGE (UZF_0) FLOW RATES   PERIOD      1   STEP        9
 ----------------------------------------------------------------------------------------
   NUMBER   CELLID                    RATE       NAME                                    
 ----------------------------------------------------------------------------------------
     1      (1,1,2)               0.0000000      UZF01                                   
     2      (1,1,3)               0.0000000      UZF02                                   
     3      (1,1,4)               0.0000000      UZF03                                   
     4      (1,1,5)               0.0000000      UZF04                                   
     5      (1,1,6)               0.0000000      UZF05                                   
     6      (1,1,7)               0.0000000      UZF06                                   
     7      (1,1,8)               0.0000000      UZF07                                   
     8      (1,1,9)               0.0000000      UZF08                                   
     9      (2,1,2)               -0.0000000     UZF09                                   
     10     (2,1,3)               -0.0000000     UZF10                                   
     11     (2,1,4)               -0.0000000     UZF11                                   
     12     (2,1,5)               -0.0000000     UZF12                                   
     13     (2,1,6)               -0.0000000     UZF13                                   
     14     (2,1,7)               -0.0000000     UZF14                                   
     15     (2,1,8)               -0.0000000     UZF15                                   
     16     (2,1,9)               -0.0000000     UZF16                                   
     17     (3,1,2)               -0.0000000     UZF17                                   
     18     (3,1,3)               -0.0000000     UZF18                                   
     19     (3,1,4)               -0.0000000     UZF19                                   
     20     (3,1,5)               -0.0000000     UZF20                                   
     21     (3,1,6)               -0.0000000     UZF21                                   
     22     (3,1,7)               -0.0000000     UZF22                                   
     23     (3,1,8)               -0.0000000     UZF23                                   
     24     (3,1,9)               -0.0000000     UZF24                                   
 ----------------------------------------------------------------------------------------




 UZF-GWET PACKAGE (UZF_0) FLOW RATES   PERIOD      1   STEP        9
 ----------------------------------------------------------------------------------------
   NUMBER   CELLID                    RATE       NAME                                    
 ----------------------------------------------------------------------------------------
     1      (1,1,2)               -0.0000000     UZF01                                   
     2      (1,1,3)               -0.0000000     UZF02                                   
     3      (1,1,4)               -0.0000000     UZF03                                   
     4      (1,1,5)               -0.0000000     UZF04                                   
     5      (1,1,6)               -0.0000000     UZF05                                   
     6      (1,1,7)               -0.0000000     UZF06                                   
     7      (1,1,8)               -0.0000000     UZF07                                   
     8      (1,1,9)               -0.0000000     UZF08                                   
     9      (2,1,2)               -0.0000000     UZF09                                   
     10     (2,1,3)               -0.0000000     UZF10                                   
     11     (2,1,4)               -0.0000000     UZF11                                   
     12     (2,1,5)               -0.0000000     UZF12                                   
     13     (2,1,6)               -0.0000000     UZF13                                   
     14     (2,1,7)               -0.0000000     UZF14                                   
     15     (2,1,8)               -0.0000000     UZF15                                   
     16     (2,1,9)               -0.0000000     UZF16                                   
     17     (3,1,2)               -0.0000000     UZF17                                   
     18     (3,1,3)               -0.0000000     UZF18                                   
     19     (3,1,4)               -0.0000000     UZF19                                   
     20     (3,1,5)               -0.0000000     UZF20                                   
     21     (3,1,6)               -0.0000000     UZF21                                   
     22     (3,1,7)               -0.0000000     UZF22                                   
     23     (3,1,8)               -0.0000000     UZF23                                   
     24     (3,1,9)               -0.0000000     UZF24                                   
 ----------------------------------------------------------------------------------------




 UZF_0 PACKAGE - SUMMARY OF FLOWS FOR EACH CONTROL VOLUME   PERIOD      1   STEP        9
 ----------------------------------------------------------------------------------------------------------------------------------------------------
                                                                                                                                           PERCENT   
   NUMBER   CELLID                  INFLOW      OUTFLOW        GWF      INFILTRATION   REJ INF        UZET       STORAGE      IN - OUT    DIFFERENCE 
 ----------------------------------------------------------------------------------------------------------------------------------------------------
     1      (1,1,2)               0.0000      -0.12500      0.0000       0.12500      0.0000       0.0000       0.0000       0.0000       0.0000     
     2      (1,1,3)               0.0000      -0.12500      0.0000       0.12500      0.0000       0.0000       0.0000       0.0000       0.0000     
     3      (1,1,4)               0.0000      -0.12500      0.0000       0.12500      0.0000       0.0000       0.0000       0.0000       0.0000     
     4      (1,1,5)               0.0000      -0.12500      0.0000       0.12500      0.0000       0.0000       0.0000       0.0000       0.0000     
     5      (1,1,6)               0.0000      -0.12500      0.0000       0.12500      0.0000       0.0000       0.0000       0.0000       0.0000     
     6      (1,1,7)               0.0000      -0.12500      0.0000       0.12500      0.0000       0.0000       0.0000       0.0000       0.0000     
     7      (1,1,8)               0.0000      -0.12500      0.0000       0.12500      0.0000       0.0000       0.0000       0.0000       0.0000     
     8      (1,1,9)               0.0000      -0.12500      0.0000       0.12500      0.0000       0.0000       0.0000       0.0000       0.0000     
     9      (2,1,2)               0.12500     -6.17284E-07  0.0000       0.0000       0.0000       0.0000      -0.12500      0.0000       0.0000     
     10     (2,1,3)               0.12500     -6.17284E-07  0.0000       0.0000       0.0000       0.0000      -0.12500      0.0000       0.0000     
     11     (2,1,4)               0.12500     -6.17284E-07  0.0000       0.0000       0.0000       0.0000      -0.12500      0.0000       0.0000     
     12     (2,1,5)               0.12500     -6.17284E-07  0.0000       0.0000       0.0000       0.0000      -0.12500      0.0000       0.0000     
     13     (2,1,6)               0.12500     -6.17284E-07  0.0000       0.0000       0.0000       0.0000      -0.12500      0.0000       0.0000     
     14     (2,1,7)               0.12500     -6.17284E-07  0.0000       0.0000       0.0000       0.0000      -0.12500      0.0000       0.0000     
     15     (2,1,8)               0.12500     -6.17284E-07  0.0000       0.0000       0.0000       0.0000      -0.12500      0.0000       0.0000     
     16     (2,1,9)               0.12500     -6.17284E-07  0.0000       0.0000       0.0000       0.0000      -0.12500      0.0000       0.0000     
     17     (3,1,2)               6.17284E-07  0.0000       0.0000       0.0000       0.0000       0.0000      -6.17284E-07  2.89389E-18  4.68810E-10
     18     (3,1,3)               6.17284E-07  0.0000       0.0000       0.0000       0.0000       0.0000      -6.17284E-07 -1.09839E-17 -1.77939E-09
     19     (3,1,4)               6.17284E-07  0.0000       0.0000       0.0000       0.0000       0.0000      -6.17284E-07  9.83278E-18  1.59291E-09
     20     (3,1,5)               6.17284E-07  0.0000       0.0000       0.0000       0.0000       0.0000      -6.17284E-07  1.67717E-17  2.71701E-09
     21     (3,1,6)               6.17284E-07  0.0000       0.0000       0.0000       0.0000       0.0000      -6.17284E-07  1.67717E-17  2.71701E-09
     22     (3,1,7)               6.17284E-07  0.0000       0.0000       0.0000       0.0000       0.0000      -6.17284E-07  9.83278E-18  1.59291E-09
     23     (3,1,8)               6.17284E-07  0.0000       0.0000       0.0000       0.0000       0.0000      -6.17284E-07 -1.09839E-17 -1.77939E-09
     24     (3,1,9)               6.17284E-07  0.0000       0.0000       0.0000       0.0000       0.0000      -6.17284E-07  2.89389E-18  4.68810E-10
 ----------------------------------------------------------------------------------------------------------------------------------------------------


1
  HEAD IN LAYER   1 AT END OF TIME STEP   9 IN STRESS PERIOD    1
  ---------------------------------------------------------------------------

                1               2               3               4               5               6               7               8               9              10
 ................................................................................................................................................................
   1     -25.5000        -25.5000        -25.5000        -25.5000        -25.5000        -25.5000        -25.5000        -25.5000        -25.5000        -25.5000    
1
  HEAD IN LAYER   2 AT END OF TIME STEP   9 IN STRESS PERIOD    1
  ---------------------------------------------------------------------------

                1               2               3               4               5               6               7               8               9              10
 ................................................................................................................................................................
   1     -25.5000        -25.5000        -25.5000        -25.5000        -25.5000        -25.5000        -25.5000        -25.5000        -25.5000        -25.5000    
1
  HEAD IN LAYER   3 AT END OF TIME STEP   9 IN STRESS PERIOD    1
  ---------------------------------------------------------------------------

                1               2               3               4               5               6               7               8               9              10
 ................................................................................................................................................................
   1     -25.5000        -25.5000        -25.5000        -25.5000        -25.5000        -25.5000        -25.5000        -25.5000        -25.5000        -25.5000    

 HEAD WILL BE SAVED ON UNIT 1015 AT END OF TIME STEP    9, STRESS PERIOD    1


  UZF_0 BUDGET FOR ENTIRE MODEL AT END OF TIME STEP    9, STRESS PERIOD   1
  ------------------------------------------------------------------------------

     CUMULATIVE UZF_0      L**3       RATES FOR THIS TIME STEP      L**3/T
     ------------------                 ------------------------

           IN:                                      IN:
           ---                                      ---
                 GWF =           0.0000                   GWF =           0.0000
        INFILTRATION =           9.0000          INFILTRATION =           1.0000
             REJ-INF =           0.0000               REJ-INF =           0.0000
                UZET =           0.0000                  UZET =           0.0000
             STORAGE =           0.0000               STORAGE =           0.0000

            TOTAL IN =           9.0000              TOTAL IN =           1.0000

          OUT:                                     OUT:
          ----                                     ----
                 GWF =           0.0000                   GWF =           0.0000
        INFILTRATION =           0.0000          INFILTRATION =           0.0000
             REJ-INF =           0.0000               REJ-INF =           0.0000
                UZET =           0.0000                  UZET =           0.0000
             STORAGE =           9.0000               STORAGE =           1.0000

           TOTAL OUT =           9.0000             TOTAL OUT =           1.0000

            IN - OUT =           0.0000              IN - OUT =           0.0000

 PERCENT DISCREPANCY =           0.00     PERCENT DISCREPANCY =           0.00



  VOLUME BUDGET FOR ENTIRE MODEL AT END OF TIME STEP    9, STRESS PERIOD   1
  ---------------------------------------------------------------------------------------------------

     CUMULATIVE VOLUME      L**3       RATES FOR THIS TIME STEP      L**3/T          PACKAGE NAME    
     ------------------                 ------------------------                     ----------------

           IN:                                      IN:
           ---                                      ---
              STO-SS =       2.3750E-04                STO-SS =       1.4745E-17     STORAGE                          
              STO-SY =           1.5000                STO-SY =       9.5923E-14     STORAGE                          
                 GHB =           0.0000                   GHB =           0.0000     GHB_0                            
           UZF-GWRCH =           0.0000             UZF-GWRCH =           0.0000     UZF_0                            
             UZF-GWD =           0.0000               UZF-GWD =           0.0000     UZF_0                            
            UZF-GWET =           0.0000              UZF-GWET =           0.0000     UZF_0                            

            TOTAL IN =           1.5002              TOTAL IN =       9.5938E-14

          OUT:                                     OUT:
          ----                                     ----
              STO-SS =           0.0000                STO-SS =           0.0000     STORAGE                          
              STO-SY =           0.0000                STO-SY =           0.0000     STORAGE                          
                 GHB =           1.5002                   GHB =       2.3501E-09     GHB_0                            
           UZF-GWRCH =           0.0000             UZF-GWRCH =           0.0000     UZF_0                            
             UZF-GWD =           0.0000               UZF-GWD =           0.0000     UZF_0                            
            UZF-GWET =           0.0000              UZF-GWET =           0.0000     UZF_0                            

           TOTAL OUT =           1.5002             TOTAL OUT =       2.3501E-09

            IN - OUT =      -9.0519E-09              IN - OUT =      -2.3500E-09

 PERCENT DISCREPANCY =          -0.00     PERCENT DISCREPANCY =        -199.98




         TIME SUMMARY AT END OF TIME STEP    9 IN STRESS PERIOD    1
                    SECONDS     MINUTES      HOURS       DAYS        YEARS
                    -----------------------------------------------------------
   TIME STEP LENGTH  86400.      1440.0      24.000      1.0000     2.73785E-03
 STRESS PERIOD TIME 7.77600E+05  12960.      216.00      9.0000     2.46407E-02
         TOTAL TIME 7.77600E+05  12960.      216.00      9.0000     2.46407E-02


end timestep


start timestep kper="1" kstp="10" mode="normal"

 UBDSV1 SAVING           STO-SS ON UNIT   1014 AT TIME STEP     10, STRESS PERIOD      1
 UBDSV1 SAVING           STO-SY ON UNIT   1014 AT TIME STEP     10, STRESS PERIOD      1
 UBDSV1 SAVING     FLOW-JA-FACE ON UNIT   1014 AT TIME STEP     10, STRESS PERIOD      1
 UBDSV06 SAVING              GHB IN MODEL UZF_3LAY_WC_CHK  PACKAGE UZF_3LAY_WC_CHK CONNECTED TO MODEL UZF_3LAY_WC_CHK  PACKAGE GHB_0            ON UNIT   1014 AT TIME STEP     10, STRESS PERIOD      1
 UBDSV06 SAVING        UZF-GWRCH IN MODEL UZF_3LAY_WC_CHK  PACKAGE UZF_3LAY_WC_CHK CONNECTED TO MODEL UZF_3LAY_WC_CHK  PACKAGE UZF_0            ON UNIT   1014 AT TIME STEP     10, STRESS PERIOD      1
 UBDSV06 SAVING          UZF-GWD IN MODEL UZF_3LAY_WC_CHK  PACKAGE UZF_3LAY_WC_CHK CONNECTED TO MODEL UZF_3LAY_WC_CHK  PACKAGE UZF_0            ON UNIT   1014 AT TIME STEP     10, STRESS PERIOD      1
 UBDSV06 SAVING         UZF-GWET IN MODEL UZF_3LAY_WC_CHK  PACKAGE UZF_3LAY_WC_CHK CONNECTED TO MODEL UZF_3LAY_WC_CHK  PACKAGE UZF_0            ON UNIT   1014 AT TIME STEP     10, STRESS PERIOD      1
 UBDSV06 SAVING     FLOW-JA-FACE IN MODEL UZF_3LAY_WC_CHK  PACKAGE UZF_0           CONNECTED TO MODEL UZF_3LAY_WC_CHK  PACKAGE UZF_0            ON UNIT   1011 AT TIME STEP     10, STRESS PERIOD      1
 UBDSV06 SAVING              GWF IN MODEL UZF_3LAY_WC_CHK  PACKAGE UZF_0           CONNECTED TO MODEL UZF_3LAY_WC_CHK  PACKAGE UZF_3LAY_WC_CHK  ON UNIT   1011 AT TIME STEP     10, STRESS PERIOD      1
 UBDSV06 SAVING     INFILTRATION IN MODEL UZF_3LAY_WC_CHK  PACKAGE UZF_0           CONNECTED TO MODEL UZF_3LAY_WC_CHK  PACKAGE UZF_0            ON UNIT   1011 AT TIME STEP     10, STRESS PERIOD      1
 UBDSV06 SAVING          REJ-INF IN MODEL UZF_3LAY_WC_CHK  PACKAGE UZF_0           CONNECTED TO MODEL UZF_3LAY_WC_CHK  PACKAGE UZF_0            ON UNIT   1011 AT TIME STEP     10, STRESS PERIOD      1
 UBDSV06 SAVING             UZET IN MODEL UZF_3LAY_WC_CHK  PACKAGE UZF_0           CONNECTED TO MODEL UZF_3LAY_WC_CHK  PACKAGE UZF_0            ON UNIT   1011 AT TIME STEP     10, STRESS PERIOD      1
 UBDSV06 SAVING          STORAGE IN MODEL UZF_3LAY_WC_CHK  PACKAGE UZF_0           CONNECTED TO MODEL UZF_3LAY_WC_CHK  PACKAGE UZF_0            ON UNIT   1011 AT TIME STEP     10, STRESS PERIOD      1

 GHB PACKAGE (GHB_0) FLOW RATES   PERIOD      1   STEP       10
 -----------------------------------------------
   NUMBER   CELLID                    RATE      
 -----------------------------------------------
     1      (3,1,1)              -1.16779120E-09
     2      (3,1,10)             -1.16779120E-09
 -----------------------------------------------




 UZF-GWRCH PACKAGE (UZF_0) FLOW RATES   PERIOD      1   STEP       10
 ----------------------------------------------------------------------------------------
   NUMBER   CELLID                    RATE       NAME                                    
 ----------------------------------------------------------------------------------------
     1      (1,1,2)               0.0000000      UZF01                                   
     2      (1,1,3)               0.0000000      UZF02                                   
     3      (1,1,4)               0.0000000      UZF03                                   
     4      (1,1,5)               0.0000000      UZF04                                   
     5      (1,1,6)               0.0000000      UZF05                                   
     6      (1,1,7)               0.0000000      UZF06                                   
     7      (1,1,8)               0.0000000      UZF07                                   
     8      (1,1,9)               0.0000000      UZF08                                   
     9      (2,1,2)               0.0000000      UZF09                                   
     10     (2,1,3)               0.0000000      UZF10                                   
     11     (2,1,4)               0.0000000      UZF11                                   
     12     (2,1,5)               0.0000000      UZF12                                   
     13     (2,1,6)               0.0000000      UZF13                                   
     14     (2,1,7)               0.0000000      UZF14                                   
     15     (2,1,8)               0.0000000      UZF15                                   
     16     (2,1,9)               0.0000000      UZF16                                   
     17     (3,1,2)               0.0000000      UZF17                                   
     18     (3,1,3)               0.0000000      UZF18                                   
     19     (3,1,4)               0.0000000      UZF19                                   
     20     (3,1,5)               0.0000000      UZF20                                   
     21     (3,1,6)               0.0000000      UZF21                                   
     22     (3,1,7)               0.0000000      UZF22                                   
     23     (3,1,8)               0.0000000      UZF23                                   
     24     (3,1,9)               0.0000000      UZF24                                   
 ----------------------------------------------------------------------------------------




 UZF-GWD PACKAGE (UZF_0) FLOW RATES   PERIOD      1   STEP       10
 ----------------------------------------------------------------------------------------
   NUMBER   CELLID                    RATE       NAME                                    
 ----------------------------------------------------------------------------------------
     1      (1,1,2)               0.0000000      UZF01                                   
     2      (1,1,3)               0.0000000      UZF02                                   
     3      (1,1,4)               0.0000000      UZF03                                   
     4      (1,1,5)               0.0000000      UZF04                                   
     5      (1,1,6)               0.0000000      UZF05                                   
     6      (1,1,7)               0.0000000      UZF06                                   
     7      (1,1,8)               0.0000000      UZF07                                   
     8      (1,1,9)               0.0000000      UZF08                                   
     9      (2,1,2)               -0.0000000     UZF09                                   
     10     (2,1,3)               -0.0000000     UZF10                                   
     11     (2,1,4)               -0.0000000     UZF11                                   
     12     (2,1,5)               -0.0000000     UZF12                                   
     13     (2,1,6)               -0.0000000     UZF13                                   
     14     (2,1,7)               -0.0000000     UZF14                                   
     15     (2,1,8)               -0.0000000     UZF15                                   
     16     (2,1,9)               -0.0000000     UZF16                                   
     17     (3,1,2)               -0.0000000     UZF17                                   
     18     (3,1,3)               -0.0000000     UZF18                                   
     19     (3,1,4)               -0.0000000     UZF19                                   
     20     (3,1,5)               -0.0000000     UZF20                                   
     21     (3,1,6)               -0.0000000     UZF21                                   
     22     (3,1,7)               -0.0000000     UZF22                                   
     23     (3,1,8)               -0.0000000     UZF23                                   
     24     (3,1,9)               -0.0000000     UZF24                                   
 ----------------------------------------------------------------------------------------




 UZF-GWET PACKAGE (UZF_0) FLOW RATES   PERIOD      1   STEP       10
 ----------------------------------------------------------------------------------------
   NUMBER   CELLID                    RATE       NAME                                    
 ----------------------------------------------------------------------------------------
     1      (1,1,2)               -0.0000000     UZF01                                   
     2      (1,1,3)               -0.0000000     UZF02                                   
     3      (1,1,4)               -0.0000000     UZF03                                   
     4      (1,1,5)               -0.0000000     UZF04                                   
     5      (1,1,6)               -0.0000000     UZF05                                   
     6      (1,1,7)               -0.0000000     UZF06                                   
     7      (1,1,8)               -0.0000000     UZF07                                   
     8      (1,1,9)               -0.0000000     UZF08                                   
     9      (2,1,2)               -0.0000000     UZF09                                   
     10     (2,1,3)               -0.0000000     UZF10                                   
     11     (2,1,4)               -0.0000000     UZF11                                   
     12     (2,1,5)               -0.0000000     UZF12                                   
     13     (2,1,6)               -0.0000000     UZF13                                   
     14     (2,1,7)               -0.0000000     UZF14                                   
     15     (2,1,8)               -0.0000000     UZF15                                   
     16     (2,1,9)               -0.0000000     UZF16                                   
     17     (3,1,2)               -0.0000000     UZF17                                   
     18     (3,1,3)               -0.0000000     UZF18                                   
     19     (3,1,4)               -0.0000000     UZF19                                   
     20     (3,1,5)               -0.0000000     UZF20                                   
     21     (3,1,6)               -0.0000000     UZF21                                   
     22     (3,1,7)               -0.0000000     UZF22                                   
     23     (3,1,8)               -0.0000000     UZF23                                   
     24     (3,1,9)               -0.0000000     UZF24                                   
 ----------------------------------------------------------------------------------------




 UZF_0 PACKAGE - SUMMARY OF FLOWS FOR EACH CONTROL VOLUME   PERIOD      1   STEP       10
 ----------------------------------------------------------------------------------------------------------------------------------------------------
                                                                                                                                           PERCENT   
   NUMBER   CELLID                  INFLOW      OUTFLOW        GWF      INFILTRATION   REJ INF        UZET       STORAGE      IN - OUT    DIFFERENCE 
 ----------------------------------------------------------------------------------------------------------------------------------------------------
     1      (1,1,2)               0.0000      -0.12500      0.0000       0.12500      0.0000       0.0000       0.0000       0.0000       0.0000     
     2      (1,1,3)               0.0000      -0.12500      0.0000       0.12500      0.0000       0.0000       0.0000       0.0000       0.0000     
     3      (1,1,4)               0.0000      -0.12500      0.0000       0.12500      0.0000       0.0000       0.0000       0.0000       0.0000     
     4      (1,1,5)               0.0000      -0.12500      0.0000       0.12500      0.0000       0.0000       0.0000       0.0000       0.0000     
     5      (1,1,6)               0.0000      -0.12500      0.0000       0.12500      0.0000       0.0000       0.0000       0.0000       0.0000     
     6      (1,1,7)               0.0000      -0.12500      0.0000       0.12500      0.0000       0.0000       0.0000       0.0000       0.0000     
     7      (1,1,8)               0.0000      -0.12500      0.0000       0.12500      0.0000       0.0000       0.0000       0.0000       0.0000     
     8      (1,1,9)               0.0000      -0.12500      0.0000       0.12500      0.0000       0.0000       0.0000       0.0000       0.0000     
     9      (2,1,2)               0.12500     -6.17284E-07  0.0000       0.0000       0.0000       0.0000      -0.12500      5.55112E-17  4.44089E-14
     10     (2,1,3)               0.12500     -6.17284E-07  0.0000       0.0000       0.0000       0.0000      -0.12500      5.55112E-17  4.44089E-14
     11     (2,1,4)               0.12500     -6.17284E-07  0.0000       0.0000       0.0000       0.0000      -0.12500      5.55112E-17  4.44089E-14
     12     (2,1,5)               0.12500     -6.17284E-07  0.0000       0.0000       0.0000       0.0000      -0.12500      5.55112E-17  4.44089E-14
     13     (2,1,6)               0.12500     -6.17284E-07  0.0000       0.0000       0.0000       0.0000      -0.12500      5.55112E-17  4.44089E-14
     14     (2,1,7)               0.12500     -6.17284E-07  0.0000       0.0000       0.0000       0.0000      -0.12500      5.55112E-17  4.44089E-14
     15     (2,1,8)               0.12500     -6.17284E-07  0.0000       0.0000       0.0000       0.0000      -0.12500      5.55112E-17  4.44089E-14
     16     (2,1,9)               0.12500     -6.17284E-07  0.0000       0.0000       0.0000       0.0000      -0.12500      5.55112E-17  4.44089E-14
     17     (3,1,2)               6.17284E-07  0.0000       0.0000       0.0000       0.0000       0.0000      -6.17284E-07  9.83278E-18  1.59291E-09
     18     (3,1,3)               6.17284E-07  0.0000       0.0000       0.0000       0.0000       0.0000      -6.17284E-07 -4.04501E-18 -6.55291E-10
     19     (3,1,4)               6.17284E-07  0.0000       0.0000       0.0000       0.0000       0.0000      -6.17284E-07  9.83278E-18  1.59291E-09
     20     (3,1,5)               6.17284E-07  0.0000       0.0000       0.0000       0.0000       0.0000      -6.17284E-07 -2.48617E-17 -4.02759E-09
     21     (3,1,6)               6.17284E-07  0.0000       0.0000       0.0000       0.0000       0.0000      -6.17284E-07 -2.48617E-17 -4.02759E-09
     22     (3,1,7)               6.17284E-07  0.0000       0.0000       0.0000       0.0000       0.0000      -6.17284E-07  9.83278E-18  1.59291E-09
     23     (3,1,8)               6.17284E-07  0.0000       0.0000       0.0000       0.0000       0.0000      -6.17284E-07 -4.04501E-18 -6.55291E-10
     24     (3,1,9)               6.17284E-07  0.0000       0.0000       0.0000       0.0000       0.0000      -6.17284E-07  9.83278E-18  1.59291E-09
 ----------------------------------------------------------------------------------------------------------------------------------------------------


1
  HEAD IN LAYER   1 AT END OF TIME STEP  10 IN STRESS PERIOD    1
  ---------------------------------------------------------------------------

                1               2               3               4               5               6               7               8               9              10
 ................................................................................................................................................................
   1     -25.5000        -25.5000        -25.5000        -25.5000        -25.5000        -25.5000        -25.5000        -25.5000        -25.5000        -25.5000    
1
  HEAD IN LAYER   2 AT END OF TIME STEP  10 IN STRESS PERIOD    1
  ---------------------------------------------------------------------------

                1               2               3               4               5               6               7               8               9              10
 ................................................................................................................................................................
   1     -25.5000        -25.5000        -25.5000        -25.5000        -25.5000        -25.5000        -25.5000        -25.5000        -25.5000        -25.5000    
1
  HEAD IN LAYER   3 AT END OF TIME STEP  10 IN STRESS PERIOD    1
  ---------------------------------------------------------------------------

                1               2               3               4               5               6               7               8               9              10
 ................................................................................................................................................................
   1     -25.5000        -25.5000        -25.5000        -25.5000        -25.5000        -25.5000        -25.5000        -25.5000        -25.5000        -25.5000    

 HEAD WILL BE SAVED ON UNIT 1015 AT END OF TIME STEP   10, STRESS PERIOD    1


  UZF_0 BUDGET FOR ENTIRE MODEL AT END OF TIME STEP   10, STRESS PERIOD   1
  ------------------------------------------------------------------------------

     CUMULATIVE UZF_0      L**3       RATES FOR THIS TIME STEP      L**3/T
     ------------------                 ------------------------

           IN:                                      IN:
           ---                                      ---
                 GWF =           0.0000                   GWF =           0.0000
        INFILTRATION =          10.0000          INFILTRATION =           1.0000
             REJ-INF =           0.0000               REJ-INF =           0.0000
                UZET =           0.0000                  UZET =           0.0000
             STORAGE =           0.0000               STORAGE =           0.0000

            TOTAL IN =          10.0000              TOTAL IN =           1.0000

          OUT:                                     OUT:
          ----                                     ----
                 GWF =           0.0000                   GWF =           0.0000
        INFILTRATION =           0.0000          INFILTRATION =           0.0000
             REJ-INF =           0.0000               REJ-INF =           0.0000
                UZET =           0.0000                  UZET =           0.0000
             STORAGE =          10.0000               STORAGE =           1.0000

           TOTAL OUT =          10.0000             TOTAL OUT =           1.0000

            IN - OUT =           0.0000              IN - OUT =       2.2204E-16

 PERCENT DISCREPANCY =           0.00     PERCENT DISCREPANCY =           0.00



  VOLUME BUDGET FOR ENTIRE MODEL AT END OF TIME STEP   10, STRESS PERIOD   1
  ---------------------------------------------------------------------------------------------------

     CUMULATIVE VOLUME      L**3       RATES FOR THIS TIME STEP      L**3/T          PACKAGE NAME    
     ------------------                 ------------------------                     ----------------

           IN:                                      IN:
           ---                                      ---
              STO-SS =       2.3750E-04                STO-SS =       1.4311E-17     STORAGE                          
              STO-SY =           1.5000                STO-SY =       9.5923E-14     STORAGE                          
                 GHB =           0.0000                   GHB =           0.0000     GHB_0                            
           UZF-GWRCH =           0.0000             UZF-GWRCH =           0.0000     UZF_0                            
             UZF-GWD =           0.0000               UZF-GWD =           0.0000     UZF_0                            
            UZF-GWET =           0.0000              UZF-GWET =           0.0000     UZF_0                            

            TOTAL IN =           1.5002              TOTAL IN =       9.5938E-14

          OUT:                                     OUT:
          ----                                     ----
              STO-SS =           0.0000                STO-SS =           0.0000     STORAGE                          
              STO-SY =           0.0000                STO-SY =           0.0000     STORAGE                          
                 GHB =           1.5002                   GHB =       2.3356E-09     GHB_0                            
           UZF-GWRCH =           0.0000             UZF-GWRCH =           0.0000     UZF_0                            
             UZF-GWD =           0.0000               UZF-GWD =           0.0000     UZF_0                            
            UZF-GWET =           0.0000              UZF-GWET =           0.0000     UZF_0                            

           TOTAL OUT =           1.5002             TOTAL OUT =       2.3356E-09

            IN - OUT =      -1.1387E-08              IN - OUT =      -2.3355E-09

 PERCENT DISCREPANCY =          -0.00     PERCENT DISCREPANCY =        -199.98




         TIME SUMMARY AT END OF TIME STEP   10 IN STRESS PERIOD    1
                    SECONDS     MINUTES      HOURS       DAYS        YEARS
                    -----------------------------------------------------------
   TIME STEP LENGTH  86400.      1440.0      24.000      1.0000     2.73785E-03
 STRESS PERIOD TIME 8.64000E+05  14400.      240.00      10.000     2.73785E-02
         TOTAL TIME 8.64000E+05  14400.      240.00      10.000     2.73785E-02


end timestep


start timestep kper="2" kstp="1" mode="normal"


 END OF FILE DETECTED IN OUTPUT CONTROL.
 CURRENT OUTPUT CONTROL SETTINGS WILL BE 
 REPEATED UNTIL THE END OF THE SIMULATION.

 OUTPUT CONTROL FOR STRESS PERIOD 2 IS REPEATED USING SETTINGS FROM A PREVIOUS STRESS PERIOD.


 STRESS PERIOD 2 IS TRANSIENT

 UBDSV1 SAVING           STO-SS ON UNIT   1014 AT TIME STEP      1, STRESS PERIOD      2
 UBDSV1 SAVING           STO-SY ON UNIT   1014 AT TIME STEP      1, STRESS PERIOD      2
 UBDSV1 SAVING     FLOW-JA-FACE ON UNIT   1014 AT TIME STEP      1, STRESS PERIOD      2
 UBDSV06 SAVING              GHB IN MODEL UZF_3LAY_WC_CHK  PACKAGE UZF_3LAY_WC_CHK CONNECTED TO MODEL UZF_3LAY_WC_CHK  PACKAGE GHB_0            ON UNIT   1014 AT TIME STEP      1, STRESS PERIOD      2
 UBDSV06 SAVING        UZF-GWRCH IN MODEL UZF_3LAY_WC_CHK  PACKAGE UZF_3LAY_WC_CHK CONNECTED TO MODEL UZF_3LAY_WC_CHK  PACKAGE UZF_0            ON UNIT   1014 AT TIME STEP      1, STRESS PERIOD      2
 UBDSV06 SAVING          UZF-GWD IN MODEL UZF_3LAY_WC_CHK  PACKAGE UZF_3LAY_WC_CHK CONNECTED TO MODEL UZF_3LAY_WC_CHK  PACKAGE UZF_0            ON UNIT   1014 AT TIME STEP      1, STRESS PERIOD      2
 UBDSV06 SAVING         UZF-GWET IN MODEL UZF_3LAY_WC_CHK  PACKAGE UZF_3LAY_WC_CHK CONNECTED TO MODEL UZF_3LAY_WC_CHK  PACKAGE UZF_0            ON UNIT   1014 AT TIME STEP      1, STRESS PERIOD      2
 UBDSV06 SAVING     FLOW-JA-FACE IN MODEL UZF_3LAY_WC_CHK  PACKAGE UZF_0           CONNECTED TO MODEL UZF_3LAY_WC_CHK  PACKAGE UZF_0            ON UNIT   1011 AT TIME STEP      1, STRESS PERIOD      2
 UBDSV06 SAVING              GWF IN MODEL UZF_3LAY_WC_CHK  PACKAGE UZF_0           CONNECTED TO MODEL UZF_3LAY_WC_CHK  PACKAGE UZF_3LAY_WC_CHK  ON UNIT   1011 AT TIME STEP      1, STRESS PERIOD      2
 UBDSV06 SAVING     INFILTRATION IN MODEL UZF_3LAY_WC_CHK  PACKAGE UZF_0           CONNECTED TO MODEL UZF_3LAY_WC_CHK  PACKAGE UZF_0            ON UNIT   1011 AT TIME STEP      1, STRESS PERIOD      2
 UBDSV06 SAVING          REJ-INF IN MODEL UZF_3LAY_WC_CHK  PACKAGE UZF_0           CONNECTED TO MODEL UZF_3LAY_WC_CHK  PACKAGE UZF_0            ON UNIT   1011 AT TIME STEP      1, STRESS PERIOD      2
 UBDSV06 SAVING             UZET IN MODEL UZF_3LAY_WC_CHK  PACKAGE UZF_0           CONNECTED TO MODEL UZF_3LAY_WC_CHK  PACKAGE UZF_0            ON UNIT   1011 AT TIME STEP      1, STRESS PERIOD      2
 UBDSV06 SAVING          STORAGE IN MODEL UZF_3LAY_WC_CHK  PACKAGE UZF_0           CONNECTED TO MODEL UZF_3LAY_WC_CHK  PACKAGE UZF_0            ON UNIT   1011 AT TIME STEP      1, STRESS PERIOD      2

 GHB PACKAGE (GHB_0) FLOW RATES   PERIOD      2   STEP        1
 -----------------------------------------------
   NUMBER   CELLID                    RATE      
 -----------------------------------------------
     1      (3,1,1)              -1.16051524E-09
     2      (3,1,10)             -1.16051524E-09
 -----------------------------------------------




 UZF-GWRCH PACKAGE (UZF_0) FLOW RATES   PERIOD      2   STEP        1
 ----------------------------------------------------------------------------------------
   NUMBER   CELLID                    RATE       NAME                                    
 ----------------------------------------------------------------------------------------
     1      (1,1,2)               0.0000000      UZF01                                   
     2      (1,1,3)               0.0000000      UZF02                                   
     3      (1,1,4)               0.0000000      UZF03                                   
     4      (1,1,5)               0.0000000      UZF04                                   
     5      (1,1,6)               0.0000000      UZF05                                   
     6      (1,1,7)               0.0000000      UZF06                                   
     7      (1,1,8)               0.0000000      UZF07                                   
     8      (1,1,9)               0.0000000      UZF08                                   
     9      (2,1,2)               0.0000000      UZF09                                   
     10     (2,1,3)               0.0000000      UZF10                                   
     11     (2,1,4)               0.0000000      UZF11                                   
     12     (2,1,5)               0.0000000      UZF12                                   
     13     (2,1,6)               0.0000000      UZF13                                   
     14     (2,1,7)               0.0000000      UZF14                                   
     15     (2,1,8)               0.0000000      UZF15                                   
     16     (2,1,9)               0.0000000      UZF16                                   
     17     (3,1,2)               0.0000000      UZF17                                   
     18     (3,1,3)               0.0000000      UZF18                                   
     19     (3,1,4)               0.0000000      UZF19                                   
     20     (3,1,5)               0.0000000      UZF20                                   
     21     (3,1,6)               0.0000000      UZF21                                   
     22     (3,1,7)               0.0000000      UZF22                                   
     23     (3,1,8)               0.0000000      UZF23                                   
     24     (3,1,9)               0.0000000      UZF24                                   
 ----------------------------------------------------------------------------------------




 UZF-GWD PACKAGE (UZF_0) FLOW RATES   PERIOD      2   STEP        1
 ----------------------------------------------------------------------------------------
   NUMBER   CELLID                    RATE       NAME                                    
 ----------------------------------------------------------------------------------------
     1      (1,1,2)               0.0000000      UZF01                                   
     2      (1,1,3)               0.0000000      UZF02                                   
     3      (1,1,4)               0.0000000      UZF03                                   
     4      (1,1,5)               0.0000000      UZF04                                   
     5      (1,1,6)               0.0000000      UZF05                                   
     6      (1,1,7)               0.0000000      UZF06                                   
     7      (1,1,8)               0.0000000      UZF07                                   
     8      (1,1,9)               0.0000000      UZF08                                   
     9      (2,1,2)               -0.0000000     UZF09                                   
     10     (2,1,3)               -0.0000000     UZF10                                   
     11     (2,1,4)               -0.0000000     UZF11                                   
     12     (2,1,5)               -0.0000000     UZF12                                   
     13     (2,1,6)               -0.0000000     UZF13                                   
     14     (2,1,7)               -0.0000000     UZF14                                   
     15     (2,1,8)               -0.0000000     UZF15                                   
     16     (2,1,9)               -0.0000000     UZF16                                   
     17     (3,1,2)               -0.0000000     UZF17                                   
     18     (3,1,3)               -0.0000000     UZF18                                   
     19     (3,1,4)               -0.0000000     UZF19                                   
     20     (3,1,5)               -0.0000000     UZF20                                   
     21     (3,1,6)               -0.0000000     UZF21                                   
     22     (3,1,7)               -0.0000000     UZF22                                   
     23     (3,1,8)               -0.0000000     UZF23                                   
     24     (3,1,9)               -0.0000000     UZF24                                   
 ----------------------------------------------------------------------------------------




 UZF-GWET PACKAGE (UZF_0) FLOW RATES   PERIOD      2   STEP        1
 ----------------------------------------------------------------------------------------
   NUMBER   CELLID                    RATE       NAME                                    
 ----------------------------------------------------------------------------------------
     1      (1,1,2)               -0.0000000     UZF01                                   
     2      (1,1,3)               -0.0000000     UZF02                                   
     3      (1,1,4)               -0.0000000     UZF03                                   
     4      (1,1,5)               -0.0000000     UZF04                                   
     5      (1,1,6)               -0.0000000     UZF05                                   
     6      (1,1,7)               -0.0000000     UZF06                                   
     7      (1,1,8)               -0.0000000     UZF07                                   
     8      (1,1,9)               -0.0000000     UZF08                                   
     9      (2,1,2)               -0.0000000     UZF09                                   
     10     (2,1,3)               -0.0000000     UZF10                                   
     11     (2,1,4)               -0.0000000     UZF11                                   
     12     (2,1,5)               -0.0000000     UZF12                                   
     13     (2,1,6)               -0.0000000     UZF13                                   
     14     (2,1,7)               -0.0000000     UZF14                                   
     15     (2,1,8)               -0.0000000     UZF15                                   
     16     (2,1,9)               -0.0000000     UZF16                                   
     17     (3,1,2)               -0.0000000     UZF17                                   
     18     (3,1,3)               -0.0000000     UZF18                                   
     19     (3,1,4)               -0.0000000     UZF19                                   
     20     (3,1,5)               -0.0000000     UZF20                                   
     21     (3,1,6)               -0.0000000     UZF21                                   
     22     (3,1,7)               -0.0000000     UZF22                                   
     23     (3,1,8)               -0.0000000     UZF23                                   
     24     (3,1,9)               -0.0000000     UZF24                                   
 ----------------------------------------------------------------------------------------




 UZF_0 PACKAGE - SUMMARY OF FLOWS FOR EACH CONTROL VOLUME   PERIOD      2   STEP        1
 ----------------------------------------------------------------------------------------------------------------------------------------------------
                                                                                                                                           PERCENT   
   NUMBER   CELLID                  INFLOW      OUTFLOW        GWF      INFILTRATION   REJ INF        UZET       STORAGE      IN - OUT    DIFFERENCE 
 ----------------------------------------------------------------------------------------------------------------------------------------------------
     1      (1,1,2)               0.0000      -5.42935E-02  0.0000       1.00000E-03  0.0000      -1.00000E-03  5.42935E-02  2.11005E-10  3.81609E-07
     2      (1,1,3)               0.0000      -5.42935E-02  0.0000       1.00000E-03  0.0000      -1.00000E-03  5.42935E-02  2.11005E-10  3.81609E-07
     3      (1,1,4)               0.0000      -5.42935E-02  0.0000       1.00000E-03  0.0000      -1.00000E-03  5.42935E-02  2.11005E-10  3.81609E-07
     4      (1,1,5)               0.0000      -5.42935E-02  0.0000       1.00000E-03  0.0000      -1.00000E-03  5.42935E-02  2.11005E-10  3.81609E-07
     5      (1,1,6)               0.0000      -5.42935E-02  0.0000       1.00000E-03  0.0000      -1.00000E-03  5.42935E-02  2.11005E-10  3.81609E-07
     6      (1,1,7)               0.0000      -5.42935E-02  0.0000       1.00000E-03  0.0000      -1.00000E-03  5.42935E-02  2.11005E-10  3.81609E-07
     7      (1,1,8)               0.0000      -5.42935E-02  0.0000       1.00000E-03  0.0000      -1.00000E-03  5.42935E-02  2.11005E-10  3.81609E-07
     8      (1,1,9)               0.0000      -5.42935E-02  0.0000       1.00000E-03  0.0000      -1.00000E-03  5.42935E-02  2.11005E-10  3.81609E-07
     9      (2,1,2)               5.42935E-02 -6.17284E-07  0.0000       0.0000       0.0000       0.0000      -5.42929E-02  1.30080E-09  2.39587E-06
     10     (2,1,3)               5.42935E-02 -6.17284E-07  0.0000       0.0000       0.0000       0.0000      -5.42929E-02  1.30080E-09  2.39587E-06
     11     (2,1,4)               5.42935E-02 -6.17284E-07  0.0000       0.0000       0.0000       0.0000      -5.42929E-02  1.30080E-09  2.39587E-06
     12     (2,1,5)               5.42935E-02 -6.17284E-07  0.0000       0.0000       0.0000       0.0000      -5.42929E-02  1.30080E-09  2.39587E-06
     13     (2,1,6)               5.42935E-02 -6.17284E-07  0.0000       0.0000       0.0000       0.0000      -5.42929E-02  1.30080E-09  2.39587E-06
     14     (2,1,7)               5.42935E-02 -6.17284E-07  0.0000       0.0000       0.0000       0.0000      -5.42929E-02  1.30080E-09  2.39587E-06
     15     (2,1,8)               5.42935E-02 -6.17284E-07  0.0000       0.0000       0.0000       0.0000      -5.42929E-02  1.30080E-09  2.39587E-06
     16     (2,1,9)               5.42935E-02 -6.17284E-07  0.0000       0.0000       0.0000       0.0000      -5.42929E-02  1.30080E-09  2.39587E-06
     17     (3,1,2)               6.17284E-07  0.0000       0.0000       0.0000       0.0000       0.0000      -6.17284E-07 -1.96332E-18 -3.18057E-10
     18     (3,1,3)               6.17284E-07  0.0000       0.0000       0.0000       0.0000       0.0000      -6.17284E-07  8.12199E-19  1.31576E-10
     19     (3,1,4)               6.17284E-07  0.0000       0.0000       0.0000       0.0000       0.0000      -6.17284E-07 -1.26949E-18 -2.05657E-10
     20     (3,1,5)               6.17284E-07  0.0000       0.0000       0.0000       0.0000       0.0000      -6.17284E-07  1.18373E-19  1.91764E-11
     21     (3,1,6)               6.17284E-07  0.0000       0.0000       0.0000       0.0000       0.0000      -6.17284E-07  1.18373E-19  1.91764E-11
     22     (3,1,7)               6.17284E-07  0.0000       0.0000       0.0000       0.0000       0.0000      -6.17284E-07 -1.26949E-18 -2.05657E-10
     23     (3,1,8)               6.17284E-07  0.0000       0.0000       0.0000       0.0000       0.0000      -6.17284E-07  8.12199E-19  1.31576E-10
     24     (3,1,9)               6.17284E-07  0.0000       0.0000       0.0000       0.0000       0.0000      -6.17284E-07 -1.96332E-18 -3.18057E-10
 ----------------------------------------------------------------------------------------------------------------------------------------------------


1
  HEAD IN LAYER   1 AT END OF TIME STEP   1 IN STRESS PERIOD    2
  ---------------------------------------------------------------------------

                1               2               3               4               5               6               7               8               9              10
 ................................................................................................................................................................
   1     -25.5000        -25.5000        -25.5000        -25.5000        -25.5000        -25.5000        -25.5000        -25.5000        -25.5000        -25.5000    
1
  HEAD IN LAYER   2 AT END OF TIME STEP   1 IN STRESS PERIOD    2
  ---------------------------------------------------------------------------

                1               2               3               4               5               6               7               8               9              10
 ................................................................................................................................................................
   1     -25.5000        -25.5000        -25.5000        -25.5000        -25.5000        -25.5000        -25.5000        -25.5000        -25.5000        -25.5000    
1
  HEAD IN LAYER   3 AT END OF TIME STEP   1 IN STRESS PERIOD    2
  ---------------------------------------------------------------------------

                1               2               3               4               5               6               7               8               9              10
 ................................................................................................................................................................
   1     -25.5000        -25.5000        -25.5000        -25.5000        -25.5000        -25.5000        -25.5000        -25.5000        -25.5000        -25.5000    

 HEAD WILL BE SAVED ON UNIT 1015 AT END OF TIME STEP    1, STRESS PERIOD    2


  UZF_0 BUDGET FOR ENTIRE MODEL AT END OF TIME STEP    1, STRESS PERIOD   2
  ------------------------------------------------------------------------------

     CUMULATIVE UZF_0      L**3       RATES FOR THIS TIME STEP      L**3/T
     ------------------                 ------------------------

           IN:                                      IN:
           ---                                      ---
                 GWF =           0.0000                   GWF =           0.0000
        INFILTRATION =          10.0800          INFILTRATION =       8.0000E-03
             REJ-INF =           0.0000               REJ-INF =           0.0000
                UZET =           0.0000                  UZET =           0.0000
             STORAGE =           4.3435               STORAGE =           0.4343

            TOTAL IN =          14.4235              TOTAL IN =           0.4423

          OUT:                                     OUT:
          ----                                     ----
                 GWF =           0.0000                   GWF =           0.0000
        INFILTRATION =           0.0000          INFILTRATION =           0.0000
             REJ-INF =           0.0000               REJ-INF =           0.0000
                UZET =       8.0000E-02                  UZET =       8.0000E-03
             STORAGE =          14.3435               STORAGE =           0.4343

           TOTAL OUT =          14.4235             TOTAL OUT =           0.4423

            IN - OUT =       1.2094E-07              IN - OUT =       1.2094E-08

 PERCENT DISCREPANCY =           0.00     PERCENT DISCREPANCY =           0.00



  VOLUME BUDGET FOR ENTIRE MODEL AT END OF TIME STEP    1, STRESS PERIOD   2
  ---------------------------------------------------------------------------------------------------

     CUMULATIVE VOLUME      L**3       RATES FOR THIS TIME STEP      L**3/T          PACKAGE NAME    
     ------------------                 ------------------------                     ----------------

           IN:                                      IN:
           ---                                      ---
              STO-SS =       2.3750E-04                STO-SS =       1.4908E-18     STORAGE                          
              STO-SY =           1.5000                STO-SY =       9.5479E-15     STORAGE                          
                 GHB =           0.0000                   GHB =           0.0000     GHB_0                            
           UZF-GWRCH =           0.0000             UZF-GWRCH =           0.0000     UZF_0                            
             UZF-GWD =           0.0000               UZF-GWD =           0.0000     UZF_0                            
            UZF-GWET =           0.0000              UZF-GWET =           0.0000     UZF_0                            

            TOTAL IN =           1.5002              TOTAL IN =       9.5494E-15

          OUT:                                     OUT:
          ----                                     ----
              STO-SS =           0.0000                STO-SS =           0.0000     STORAGE                          
              STO-SY =           0.0000                STO-SY =           0.0000     STORAGE                          
                 GHB =           1.5002                   GHB =       2.3210E-09     GHB_0                            
           UZF-GWRCH =           0.0000             UZF-GWRCH =           0.0000     UZF_0                            
             UZF-GWD =           0.0000               UZF-GWD =           0.0000     UZF_0                            
            UZF-GWET =           0.0000              UZF-GWET =           0.0000     UZF_0                            

           TOTAL OUT =           1.5002             TOTAL OUT =       2.3210E-09

            IN - OUT =      -3.4598E-08              IN - OUT =      -2.3210E-09

 PERCENT DISCREPANCY =          -0.00     PERCENT DISCREPANCY =        -200.00




         TIME SUMMARY AT END OF TIME STEP    1 IN STRESS PERIOD    2
                    SECONDS     MINUTES      HOURS       DAYS        YEARS
                    -----------------------------------------------------------
   TIME STEP LENGTH 8.64000E+05  14400.      240.00      10.000     2.73785E-02
 STRESS PERIOD TIME 8.64000E+05  14400.      240.00      10.000     2.73785E-02
         TOTAL TIME 1.72800E+06  28800.      480.00      20.000     5.47570E-02


end timestep


start timestep kper="3" kstp="1" mode="normal"


 OUTPUT CONTROL FOR STRESS PERIOD 3 IS REPEATED USING SETTINGS FROM A PREVIOUS STRESS PERIOD.


 STRESS PERIOD 3 IS TRANSIENT

 UBDSV1 SAVING           STO-SS ON UNIT   1014 AT TIME STEP      1, STRESS PERIOD      3
 UBDSV1 SAVING           STO-SY ON UNIT   1014 AT TIME STEP      1, STRESS PERIOD      3
 UBDSV1 SAVING     FLOW-JA-FACE ON UNIT   1014 AT TIME STEP      1, STRESS PERIOD      3
 UBDSV06 SAVING              GHB IN MODEL UZF_3LAY_WC_CHK  PACKAGE UZF_3LAY_WC_CHK CONNECTED TO MODEL UZF_3LAY_WC_CHK  PACKAGE GHB_0            ON UNIT   1014 AT TIME STEP      1, STRESS PERIOD      3
 UBDSV06 SAVING        UZF-GWRCH IN MODEL UZF_3LAY_WC_CHK  PACKAGE UZF_3LAY_WC_CHK CONNECTED TO MODEL UZF_3LAY_WC_CHK  PACKAGE UZF_0            ON UNIT   1014 AT TIME STEP      1, STRESS PERIOD      3
 UBDSV06 SAVING          UZF-GWD IN MODEL UZF_3LAY_WC_CHK  PACKAGE UZF_3LAY_WC_CHK CONNECTED TO MODEL UZF_3LAY_WC_CHK  PACKAGE UZF_0            ON UNIT   1014 AT TIME STEP      1, STRESS PERIOD      3
 UBDSV06 SAVING         UZF-GWET IN MODEL UZF_3LAY_WC_CHK  PACKAGE UZF_3LAY_WC_CHK CONNECTED TO MODEL UZF_3LAY_WC_CHK  PACKAGE UZF_0            ON UNIT   1014 AT TIME STEP      1, STRESS PERIOD      3
 UBDSV06 SAVING     FLOW-JA-FACE IN MODEL UZF_3LAY_WC_CHK  PACKAGE UZF_0           CONNECTED TO MODEL UZF_3LAY_WC_CHK  PACKAGE UZF_0            ON UNIT   1011 AT TIME STEP      1, STRESS PERIOD      3
 UBDSV06 SAVING              GWF IN MODEL UZF_3LAY_WC_CHK  PACKAGE UZF_0           CONNECTED TO MODEL UZF_3LAY_WC_CHK  PACKAGE UZF_3LAY_WC_CHK  ON UNIT   1011 AT TIME STEP      1, STRESS PERIOD      3
 UBDSV06 SAVING     INFILTRATION IN MODEL UZF_3LAY_WC_CHK  PACKAGE UZF_0           CONNECTED TO MODEL UZF_3LAY_WC_CHK  PACKAGE UZF_0            ON UNIT   1011 AT TIME STEP      1, STRESS PERIOD      3
 UBDSV06 SAVING          REJ-INF IN MODEL UZF_3LAY_WC_CHK  PACKAGE UZF_0           CONNECTED TO MODEL UZF_3LAY_WC_CHK  PACKAGE UZF_0            ON UNIT   1011 AT TIME STEP      1, STRESS PERIOD      3
 UBDSV06 SAVING             UZET IN MODEL UZF_3LAY_WC_CHK  PACKAGE UZF_0           CONNECTED TO MODEL UZF_3LAY_WC_CHK  PACKAGE UZF_0            ON UNIT   1011 AT TIME STEP      1, STRESS PERIOD      3
 UBDSV06 SAVING          STORAGE IN MODEL UZF_3LAY_WC_CHK  PACKAGE UZF_0           CONNECTED TO MODEL UZF_3LAY_WC_CHK  PACKAGE UZF_0            ON UNIT   1011 AT TIME STEP      1, STRESS PERIOD      3

 GHB PACKAGE (GHB_0) FLOW RATES   PERIOD      3   STEP        1
 -----------------------------------------------
   NUMBER   CELLID                    RATE      
 -----------------------------------------------
     1      (3,1,1)              -1.15323928E-09
     2      (3,1,10)             -1.15323928E-09
 -----------------------------------------------




 UZF-GWRCH PACKAGE (UZF_0) FLOW RATES   PERIOD      3   STEP        1
 ----------------------------------------------------------------------------------------
   NUMBER   CELLID                    RATE       NAME                                    
 ----------------------------------------------------------------------------------------
     1      (1,1,2)               0.0000000      UZF01                                   
     2      (1,1,3)               0.0000000      UZF02                                   
     3      (1,1,4)               0.0000000      UZF03                                   
     4      (1,1,5)               0.0000000      UZF04                                   
     5      (1,1,6)               0.0000000      UZF05                                   
     6      (1,1,7)               0.0000000      UZF06                                   
     7      (1,1,8)               0.0000000      UZF07                                   
     8      (1,1,9)               0.0000000      UZF08                                   
     9      (2,1,2)               0.0000000      UZF09                                   
     10     (2,1,3)               0.0000000      UZF10                                   
     11     (2,1,4)               0.0000000      UZF11                                   
     12     (2,1,5)               0.0000000      UZF12                                   
     13     (2,1,6)               0.0000000      UZF13                                   
     14     (2,1,7)               0.0000000      UZF14                                   
     15     (2,1,8)               0.0000000      UZF15                                   
     16     (2,1,9)               0.0000000      UZF16                                   
     17     (3,1,2)               0.0000000      UZF17                                   
     18     (3,1,3)               0.0000000      UZF18                                   
     19     (3,1,4)               0.0000000      UZF19                                   
     20     (3,1,5)               0.0000000      UZF20                                   
     21     (3,1,6)               0.0000000      UZF21                                   
     22     (3,1,7)               0.0000000      UZF22                                   
     23     (3,1,8)               0.0000000      UZF23                                   
     24     (3,1,9)               0.0000000      UZF24                                   
 ----------------------------------------------------------------------------------------




 UZF-GWD PACKAGE (UZF_0) FLOW RATES   PERIOD      3   STEP        1
 ----------------------------------------------------------------------------------------
   NUMBER   CELLID                    RATE       NAME                                    
 ----------------------------------------------------------------------------------------
     1      (1,1,2)               0.0000000      UZF01                                   
     2      (1,1,3)               0.0000000      UZF02                                   
     3      (1,1,4)               0.0000000      UZF03                                   
     4      (1,1,5)               0.0000000      UZF04                                   
     5      (1,1,6)               0.0000000      UZF05                                   
     6      (1,1,7)               0.0000000      UZF06                                   
     7      (1,1,8)               0.0000000      UZF07                                   
     8      (1,1,9)               0.0000000      UZF08                                   
     9      (2,1,2)               -0.0000000     UZF09                                   
     10     (2,1,3)               -0.0000000     UZF10                                   
     11     (2,1,4)               -0.0000000     UZF11                                   
     12     (2,1,5)               -0.0000000     UZF12                                   
     13     (2,1,6)               -0.0000000     UZF13                                   
     14     (2,1,7)               -0.0000000     UZF14                                   
     15     (2,1,8)               -0.0000000     UZF15                                   
     16     (2,1,9)               -0.0000000     UZF16                                   
     17     (3,1,2)               -0.0000000     UZF17                                   
     18     (3,1,3)               -0.0000000     UZF18                                   
     19     (3,1,4)               -0.0000000     UZF19                                   
     20     (3,1,5)               -0.0000000     UZF20                                   
     21     (3,1,6)               -0.0000000     UZF21                                   
     22     (3,1,7)               -0.0000000     UZF22                                   
     23     (3,1,8)               -0.0000000     UZF23                                   
     24     (3,1,9)               -0.0000000     UZF24                                   
 ----------------------------------------------------------------------------------------




 UZF-GWET PACKAGE (UZF_0) FLOW RATES   PERIOD      3   STEP        1
 ----------------------------------------------------------------------------------------
   NUMBER   CELLID                    RATE       NAME                                    
 ----------------------------------------------------------------------------------------
     1      (1,1,2)               -0.0000000     UZF01                                   
     2      (1,1,3)               -0.0000000     UZF02                                   
     3      (1,1,4)               -0.0000000     UZF03                                   
     4      (1,1,5)               -0.0000000     UZF04                                   
     5      (1,1,6)               -0.0000000     UZF05                                   
     6      (1,1,7)               -0.0000000     UZF06                                   
     7      (1,1,8)               -0.0000000     UZF07                                   
     8      (1,1,9)               -0.0000000     UZF08                                   
     9      (2,1,2)               -0.0000000     UZF09                                   
     10     (2,1,3)               -0.0000000     UZF10                                   
     11     (2,1,4)               -0.0000000     UZF11                                   
     12     (2,1,5)               -0.0000000     UZF12                                   
     13     (2,1,6)               -0.0000000     UZF13                                   
     14     (2,1,7)               -0.0000000     UZF14                                   
     15     (2,1,8)               -0.0000000     UZF15                                   
     16     (2,1,9)               -0.0000000     UZF16                                   
     17     (3,1,2)               -0.0000000     UZF17                                   
     18     (3,1,3)               -0.0000000     UZF18                                   
     19     (3,1,4)               -0.0000000     UZF19                                   
     20     (3,1,5)               -0.0000000     UZF20                                   
     21     (3,1,6)               -0.0000000     UZF21                                   
     22     (3,1,7)               -0.0000000     UZF22                                   
     23     (3,1,8)               -0.0000000     UZF23                                   
     24     (3,1,9)               -0.0000000     UZF24                                   
 ----------------------------------------------------------------------------------------




 UZF_0 PACKAGE - SUMMARY OF FLOWS FOR EACH CONTROL VOLUME   PERIOD      3   STEP        1
 ----------------------------------------------------------------------------------------------------------------------------------------------------
                                                                                                                                           PERCENT   
   NUMBER   CELLID                  INFLOW      OUTFLOW        GWF      INFILTRATION   REJ INF        UZET       STORAGE      IN - OUT    DIFFERENCE 
 ----------------------------------------------------------------------------------------------------------------------------------------------------
     1      (1,1,2)               0.0000      -1.52498E-02  0.0000       5.00000E-02  0.0000      -1.00000E-03 -3.37502E-02  1.38778E-17  2.77556E-14
     2      (1,1,3)               0.0000      -1.52498E-02  0.0000       5.00000E-02  0.0000      -1.00000E-03 -3.37502E-02  1.38778E-17  2.77556E-14
     3      (1,1,4)               0.0000      -1.52498E-02  0.0000       5.00000E-02  0.0000      -1.00000E-03 -3.37502E-02  1.38778E-17  2.77556E-14
     4      (1,1,5)               0.0000      -1.52498E-02  0.0000       5.00000E-02  0.0000      -1.00000E-03 -3.37502E-02  1.38778E-17  2.77556E-14
     5      (1,1,6)               0.0000      -1.52498E-02  0.0000       5.00000E-02  0.0000      -1.00000E-03 -3.37502E-02  1.38778E-17  2.77556E-14
     6      (1,1,7)               0.0000      -1.52498E-02  0.0000       5.00000E-02  0.0000      -1.00000E-03 -3.37502E-02  1.38778E-17  2.77556E-14
     7      (1,1,8)               0.0000      -1.52498E-02  0.0000       5.00000E-02  0.0000      -1.00000E-03 -3.37502E-02  1.38778E-17  2.77556E-14
     8      (1,1,9)               0.0000      -1.52498E-02  0.0000       5.00000E-02  0.0000      -1.00000E-03 -3.37502E-02  1.38778E-17  2.77556E-14
     9      (2,1,2)               1.52498E-02 -6.17284E-07  0.0000       0.0000       0.0000       0.0000      -1.52492E-02  5.33164E-10  3.49620E-06
     10     (2,1,3)               1.52498E-02 -6.17284E-07  0.0000       0.0000       0.0000       0.0000      -1.52492E-02  5.33164E-10  3.49620E-06
     11     (2,1,4)               1.52498E-02 -6.17284E-07  0.0000       0.0000       0.0000       0.0000      -1.52492E-02  5.33164E-10  3.49620E-06
     12     (2,1,5)               1.52498E-02 -6.17284E-07  0.0000       0.0000       0.0000       0.0000      -1.52492E-02  5.33164E-10  3.49620E-06
     13     (2,1,6)               1.52498E-02 -6.17284E-07  0.0000       0.0000       0.0000       0.0000      -1.52492E-02  5.33164E-10  3.49620E-06
     14     (2,1,7)               1.52498E-02 -6.17284E-07  0.0000       0.0000       0.0000       0.0000      -1.52492E-02  5.33164E-10  3.49620E-06
     15     (2,1,8)               1.52498E-02 -6.17284E-07  0.0000       0.0000       0.0000       0.0000      -1.52492E-02  5.33164E-10  3.49620E-06
     16     (2,1,9)               1.52498E-02 -6.17284E-07  0.0000       0.0000       0.0000       0.0000      -1.52492E-02  5.33164E-10  3.49620E-06
     17     (3,1,2)               6.17284E-07  0.0000       0.0000       0.0000       0.0000       0.0000      -6.17284E-07  2.89399E-18  4.68827E-10
     18     (3,1,3)               6.17284E-07  0.0000       0.0000       0.0000       0.0000       0.0000      -6.17284E-07  1.50624E-18  2.44010E-10
     19     (3,1,4)               6.17284E-07  0.0000       0.0000       0.0000       0.0000       0.0000      -6.17284E-07 -5.75453E-19 -9.32234E-11
     20     (3,1,5)               6.17284E-07  0.0000       0.0000       0.0000       0.0000       0.0000      -6.17284E-07 -5.75453E-19 -9.32234E-11
     21     (3,1,6)               6.17284E-07  0.0000       0.0000       0.0000       0.0000       0.0000      -6.17284E-07 -5.75453E-19 -9.32234E-11
     22     (3,1,7)               6.17284E-07  0.0000       0.0000       0.0000       0.0000       0.0000      -6.17284E-07 -5.75453E-19 -9.32234E-11
     23     (3,1,8)               6.17284E-07  0.0000       0.0000       0.0000       0.0000       0.0000      -6.17284E-07  1.50624E-18  2.44010E-10
     24     (3,1,9)               6.17284E-07  0.0000       0.0000       0.0000       0.0000       0.0000      -6.17284E-07  2.89399E-18  4.68827E-10
 ----------------------------------------------------------------------------------------------------------------------------------------------------


1
  HEAD IN LAYER   1 AT END OF TIME STEP   1 IN STRESS PERIOD    3
  ---------------------------------------------------------------------------

                1               2               3               4               5               6               7               8               9              10
 ................................................................................................................................................................
   1     -25.5000        -25.5000        -25.5000        -25.5000        -25.5000        -25.5000        -25.5000        -25.5000        -25.5000        -25.5000    
1
  HEAD IN LAYER   2 AT END OF TIME STEP   1 IN STRESS PERIOD    3
  ---------------------------------------------------------------------------

                1               2               3               4               5               6               7               8               9              10
 ................................................................................................................................................................
   1     -25.5000        -25.5000        -25.5000        -25.5000        -25.5000        -25.5000        -25.5000        -25.5000        -25.5000        -25.5000    
1
  HEAD IN LAYER   3 AT END OF TIME STEP   1 IN STRESS PERIOD    3
  ---------------------------------------------------------------------------

                1               2               3               4               5               6               7               8               9              10
 ................................................................................................................................................................
   1     -25.5000        -25.5000        -25.5000        -25.5000        -25.5000        -25.5000        -25.5000        -25.5000        -25.5000        -25.5000    

 HEAD WILL BE SAVED ON UNIT 1015 AT END OF TIME STEP    1, STRESS PERIOD    3


  UZF_0 BUDGET FOR ENTIRE MODEL AT END OF TIME STEP    1, STRESS PERIOD   3
  ------------------------------------------------------------------------------

     CUMULATIVE UZF_0      L**3       RATES FOR THIS TIME STEP      L**3/T
     ------------------                 ------------------------

           IN:                                      IN:
           ---                                      ---
                 GWF =           0.0000                   GWF =           0.0000
        INFILTRATION =          14.0800          INFILTRATION =           0.4000
             REJ-INF =           0.0000               REJ-INF =           0.0000
                UZET =           0.0000                  UZET =           0.0000
             STORAGE =           4.3435               STORAGE =           0.0000

            TOTAL IN =          18.4235              TOTAL IN =           0.4000

          OUT:                                     OUT:
          ----                                     ----
                 GWF =           0.0000                   GWF =           0.0000
        INFILTRATION =           0.0000          INFILTRATION =           0.0000
             REJ-INF =           0.0000               REJ-INF =           0.0000
                UZET =           0.1600                  UZET =       8.0000E-03
             STORAGE =          18.2635               STORAGE =           0.3920

           TOTAL OUT =          18.4235             TOTAL OUT =           0.4000

            IN - OUT =       1.6360E-07              IN - OUT =       4.2653E-09

 PERCENT DISCREPANCY =           0.00     PERCENT DISCREPANCY =           0.00



  VOLUME BUDGET FOR ENTIRE MODEL AT END OF TIME STEP    1, STRESS PERIOD   3
  ---------------------------------------------------------------------------------------------------

     CUMULATIVE VOLUME      L**3       RATES FOR THIS TIME STEP      L**3/T          PACKAGE NAME    
     ------------------                 ------------------------                     ----------------

           IN:                                      IN:
           ---                                      ---
              STO-SS =       2.3750E-04                STO-SS =       1.3824E-18     STORAGE                          
              STO-SY =           1.5000                STO-SY =       9.7145E-15     STORAGE                          
                 GHB =           0.0000                   GHB =           0.0000     GHB_0                            
           UZF-GWRCH =           0.0000             UZF-GWRCH =           0.0000     UZF_0                            
             UZF-GWD =           0.0000               UZF-GWD =           0.0000     UZF_0                            
            UZF-GWET =           0.0000              UZF-GWET =           0.0000     UZF_0                            

            TOTAL IN =           1.5002              TOTAL IN =       9.7158E-15

          OUT:                                     OUT:
          ----                                     ----
              STO-SS =           0.0000                STO-SS =           0.0000     STORAGE                          
              STO-SY =           0.0000                STO-SY =           0.0000     STORAGE                          
                 GHB =           1.5002                   GHB =       2.3065E-09     GHB_0                            
           UZF-GWRCH =           0.0000             UZF-GWRCH =           0.0000     UZF_0                            
             UZF-GWD =           0.0000               UZF-GWD =           0.0000     UZF_0                            
            UZF-GWET =           0.0000              UZF-GWET =           0.0000     UZF_0                            

           TOTAL OUT =           1.5002             TOTAL OUT =       2.3065E-09

            IN - OUT =      -5.7662E-08              IN - OUT =      -2.3065E-09

 PERCENT DISCREPANCY =          -0.00     PERCENT DISCREPANCY =        -200.00




         TIME SUMMARY AT END OF TIME STEP    1 IN STRESS PERIOD    3
                    SECONDS     MINUTES      HOURS       DAYS        YEARS
                    -----------------------------------------------------------
   TIME STEP LENGTH 8.64000E+05  14400.      240.00      10.000     2.73785E-02
 STRESS PERIOD TIME 8.64000E+05  14400.      240.00      10.000     2.73785E-02
         TOTAL TIME 2.59200E+06  43200.      720.00      30.000     8.21355E-02


end timestep


start timestep kper="4" kstp="1" mode="normal"


 OUTPUT CONTROL FOR STRESS PERIOD 4 IS REPEATED USING SETTINGS FROM A PREVIOUS STRESS PERIOD.


 STRESS PERIOD 4 IS TRANSIENT

 UBDSV1 SAVING           STO-SS ON UNIT   1014 AT TIME STEP      1, STRESS PERIOD      4
 UBDSV1 SAVING           STO-SY ON UNIT   1014 AT TIME STEP      1, STRESS PERIOD      4
 UBDSV1 SAVING     FLOW-JA-FACE ON UNIT   1014 AT TIME STEP      1, STRESS PERIOD      4
 UBDSV06 SAVING              GHB IN MODEL UZF_3LAY_WC_CHK  PACKAGE UZF_3LAY_WC_CHK CONNECTED TO MODEL UZF_3LAY_WC_CHK  PACKAGE GHB_0            ON UNIT   1014 AT TIME STEP      1, STRESS PERIOD      4
 UBDSV06 SAVING        UZF-GWRCH IN MODEL UZF_3LAY_WC_CHK  PACKAGE UZF_3LAY_WC_CHK CONNECTED TO MODEL UZF_3LAY_WC_CHK  PACKAGE UZF_0            ON UNIT   1014 AT TIME STEP      1, STRESS PERIOD      4
 UBDSV06 SAVING          UZF-GWD IN MODEL UZF_3LAY_WC_CHK  PACKAGE UZF_3LAY_WC_CHK CONNECTED TO MODEL UZF_3LAY_WC_CHK  PACKAGE UZF_0            ON UNIT   1014 AT TIME STEP      1, STRESS PERIOD      4
 UBDSV06 SAVING         UZF-GWET IN MODEL UZF_3LAY_WC_CHK  PACKAGE UZF_3LAY_WC_CHK CONNECTED TO MODEL UZF_3LAY_WC_CHK  PACKAGE UZF_0            ON UNIT   1014 AT TIME STEP      1, STRESS PERIOD      4
 UBDSV06 SAVING     FLOW-JA-FACE IN MODEL UZF_3LAY_WC_CHK  PACKAGE UZF_0           CONNECTED TO MODEL UZF_3LAY_WC_CHK  PACKAGE UZF_0            ON UNIT   1011 AT TIME STEP      1, STRESS PERIOD      4
 UBDSV06 SAVING              GWF IN MODEL UZF_3LAY_WC_CHK  PACKAGE UZF_0           CONNECTED TO MODEL UZF_3LAY_WC_CHK  PACKAGE UZF_3LAY_WC_CHK  ON UNIT   1011 AT TIME STEP      1, STRESS PERIOD      4
 UBDSV06 SAVING     INFILTRATION IN MODEL UZF_3LAY_WC_CHK  PACKAGE UZF_0           CONNECTED TO MODEL UZF_3LAY_WC_CHK  PACKAGE UZF_0            ON UNIT   1011 AT TIME STEP      1, STRESS PERIOD      4
 UBDSV06 SAVING          REJ-INF IN MODEL UZF_3LAY_WC_CHK  PACKAGE UZF_0           CONNECTED TO MODEL UZF_3LAY_WC_CHK  PACKAGE UZF_0            ON UNIT   1011 AT TIME STEP      1, STRESS PERIOD      4
 UBDSV06 SAVING             UZET IN MODEL UZF_3LAY_WC_CHK  PACKAGE UZF_0           CONNECTED TO MODEL UZF_3LAY_WC_CHK  PACKAGE UZF_0            ON UNIT   1011 AT TIME STEP      1, STRESS PERIOD      4
 UBDSV06 SAVING          STORAGE IN MODEL UZF_3LAY_WC_CHK  PACKAGE UZF_0           CONNECTED TO MODEL UZF_3LAY_WC_CHK  PACKAGE UZF_0            ON UNIT   1011 AT TIME STEP      1, STRESS PERIOD      4

 GHB PACKAGE (GHB_0) FLOW RATES   PERIOD      4   STEP        1
 -----------------------------------------------
   NUMBER   CELLID                    RATE      
 -----------------------------------------------
     1      (3,1,1)               1.9326227     
     2      (3,1,10)              1.9326227     
 -----------------------------------------------




 UZF-GWRCH PACKAGE (UZF_0) FLOW RATES   PERIOD      4   STEP        1
 ----------------------------------------------------------------------------------------
   NUMBER   CELLID                    RATE       NAME                                    
 ----------------------------------------------------------------------------------------
     1      (1,1,2)               0.0000000      UZF01                                   
     2      (1,1,3)               0.0000000      UZF02                                   
     3      (1,1,4)               0.0000000      UZF03                                   
     4      (1,1,5)               0.0000000      UZF04                                   
     5      (1,1,6)               0.0000000      UZF05                                   
     6      (1,1,7)               0.0000000      UZF06                                   
     7      (1,1,8)               0.0000000      UZF07                                   
     8      (1,1,9)               0.0000000      UZF08                                   
     9      (2,1,2)               6.38392019E-02 UZF09                                   
     10     (2,1,3)               6.38397951E-02 UZF10                                   
     11     (2,1,4)               6.38401818E-02 UZF11                                   
     12     (2,1,5)               6.38403725E-02 UZF12                                   
     13     (2,1,6)               6.38403725E-02 UZF13                                   
     14     (2,1,7)               6.38401818E-02 UZF14                                   
     15     (2,1,8)               6.38397951E-02 UZF15                                   
     16     (2,1,9)               6.38392019E-02 UZF16                                   
     17     (3,1,2)               5.00185184E-03 UZF17                                   
     18     (3,1,3)               5.00185184E-03 UZF18                                   
     19     (3,1,4)               5.00185184E-03 UZF19                                   
     20     (3,1,5)               5.00185184E-03 UZF20                                   
     21     (3,1,6)               5.00185184E-03 UZF21                                   
     22     (3,1,7)               5.00185184E-03 UZF22                                   
     23     (3,1,8)               5.00185184E-03 UZF23                                   
     24     (3,1,9)               5.00185184E-03 UZF24                                   
 ----------------------------------------------------------------------------------------




 UZF-GWD PACKAGE (UZF_0) FLOW RATES   PERIOD      4   STEP        1
 ----------------------------------------------------------------------------------------
   NUMBER   CELLID                    RATE       NAME                                    
 ----------------------------------------------------------------------------------------
     1      (1,1,2)               0.0000000      UZF01                                   
     2      (1,1,3)               0.0000000      UZF02                                   
     3      (1,1,4)               0.0000000      UZF03                                   
     4      (1,1,5)               0.0000000      UZF04                                   
     5      (1,1,6)               0.0000000      UZF05                                   
     6      (1,1,7)               0.0000000      UZF06                                   
     7      (1,1,8)               0.0000000      UZF07                                   
     8      (1,1,9)               0.0000000      UZF08                                   
     9      (2,1,2)               -0.0000000     UZF09                                   
     10     (2,1,3)               -0.0000000     UZF10                                   
     11     (2,1,4)               -0.0000000     UZF11                                   
     12     (2,1,5)               -0.0000000     UZF12                                   
     13     (2,1,6)               -0.0000000     UZF13                                   
     14     (2,1,7)               -0.0000000     UZF14                                   
     15     (2,1,8)               -0.0000000     UZF15                                   
     16     (2,1,9)               -0.0000000     UZF16                                   
     17     (3,1,2)               -0.0000000     UZF17                                   
     18     (3,1,3)               -0.0000000     UZF18                                   
     19     (3,1,4)               -0.0000000     UZF19                                   
     20     (3,1,5)               -0.0000000     UZF20                                   
     21     (3,1,6)               -0.0000000     UZF21                                   
     22     (3,1,7)               -0.0000000     UZF22                                   
     23     (3,1,8)               -0.0000000     UZF23                                   
     24     (3,1,9)               -0.0000000     UZF24                                   
 ----------------------------------------------------------------------------------------




 UZF-GWET PACKAGE (UZF_0) FLOW RATES   PERIOD      4   STEP        1
 ----------------------------------------------------------------------------------------
   NUMBER   CELLID                    RATE       NAME                                    
 ----------------------------------------------------------------------------------------
     1      (1,1,2)               -0.0000000     UZF01                                   
     2      (1,1,3)               -0.0000000     UZF02                                   
     3      (1,1,4)               -0.0000000     UZF03                                   
     4      (1,1,5)               -0.0000000     UZF04                                   
     5      (1,1,6)               -0.0000000     UZF05                                   
     6      (1,1,7)               -0.0000000     UZF06                                   
     7      (1,1,8)               -0.0000000     UZF07                                   
     8      (1,1,9)               -0.0000000     UZF08                                   
     9      (2,1,2)               -0.0000000     UZF09                                   
     10     (2,1,3)               -0.0000000     UZF10                                   
     11     (2,1,4)               -0.0000000     UZF11                                   
     12     (2,1,5)               -0.0000000     UZF12                                   
     13     (2,1,6)               -0.0000000     UZF13                                   
     14     (2,1,7)               -0.0000000     UZF14                                   
     15     (2,1,8)               -0.0000000     UZF15                                   
     16     (2,1,9)               -0.0000000     UZF16                                   
     17     (3,1,2)               -0.0000000     UZF17                                   
     18     (3,1,3)               -0.0000000     UZF18                                   
     19     (3,1,4)               -0.0000000     UZF19                                   
     20     (3,1,5)               -0.0000000     UZF20                                   
     21     (3,1,6)               -0.0000000     UZF21                                   
     22     (3,1,7)               -0.0000000     UZF22                                   
     23     (3,1,8)               -0.0000000     UZF23                                   
     24     (3,1,9)               -0.0000000     UZF24                                   
 ----------------------------------------------------------------------------------------




 UZF_0 PACKAGE - SUMMARY OF FLOWS FOR EACH CONTROL VOLUME   PERIOD      4   STEP        1
 ----------------------------------------------------------------------------------------------------------------------------------------------------
                                                                                                                                           PERCENT   
   NUMBER   CELLID                  INFLOW      OUTFLOW        GWF      INFILTRATION   REJ INF        UZET       STORAGE      IN - OUT    DIFFERENCE 
 ----------------------------------------------------------------------------------------------------------------------------------------------------
     1      (1,1,2)               0.0000      -3.37014E-02  0.0000       1.00000E-02  0.0000      -1.00000E-03  2.47014E-02  4.06845E-10  1.17242E-06
     2      (1,1,3)               0.0000      -3.37014E-02  0.0000       1.00000E-02  0.0000      -1.00000E-03  2.47014E-02  4.06845E-10  1.17242E-06
     3      (1,1,4)               0.0000      -3.37014E-02  0.0000       1.00000E-02  0.0000      -1.00000E-03  2.47014E-02  4.06845E-10  1.17242E-06
     4      (1,1,5)               0.0000      -3.37014E-02  0.0000       1.00000E-02  0.0000      -1.00000E-03  2.47014E-02  4.06845E-10  1.17242E-06
     5      (1,1,6)               0.0000      -3.37014E-02  0.0000       1.00000E-02  0.0000      -1.00000E-03  2.47014E-02  4.06845E-10  1.17242E-06
     6      (1,1,7)               0.0000      -3.37014E-02  0.0000       1.00000E-02  0.0000      -1.00000E-03  2.47014E-02  4.06845E-10  1.17242E-06
     7      (1,1,8)               0.0000      -3.37014E-02  0.0000       1.00000E-02  0.0000      -1.00000E-03  2.47014E-02  4.06845E-10  1.17242E-06
     8      (1,1,9)               0.0000      -3.37014E-02  0.0000       1.00000E-02  0.0000      -1.00000E-03  2.47014E-02  4.06845E-10  1.17242E-06
     9      (2,1,2)               3.37014E-02  0.0000      -6.38392E-02  0.0000       0.0000       0.0000       3.01378E-02  1.38778E-17  2.17387E-14
     10     (2,1,3)               3.37014E-02  0.0000      -6.38398E-02  0.0000       0.0000       0.0000       3.01384E-02  1.38778E-17  2.17385E-14
     11     (2,1,4)               3.37014E-02  0.0000      -6.38402E-02  0.0000       0.0000       0.0000       3.01388E-02  0.0000       0.0000     
     12     (2,1,5)               3.37014E-02  0.0000      -6.38404E-02  0.0000       0.0000       0.0000       3.01390E-02  1.38778E-17  2.17383E-14
     13     (2,1,6)               3.37014E-02  0.0000      -6.38404E-02  0.0000       0.0000       0.0000       3.01390E-02  1.38778E-17  2.17383E-14
     14     (2,1,7)               3.37014E-02  0.0000      -6.38402E-02  0.0000       0.0000       0.0000       3.01388E-02  0.0000       0.0000     
     15     (2,1,8)               3.37014E-02  0.0000      -6.38398E-02  0.0000       0.0000       0.0000       3.01384E-02  0.0000       0.0000     
     16     (2,1,9)               3.37014E-02  0.0000      -6.38392E-02  0.0000       0.0000       0.0000       3.01378E-02  0.0000       0.0000     
     17     (3,1,2)               0.0000       0.0000      -5.00185E-03  0.0000       0.0000       0.0000       5.00185E-03  9.95062E-12  1.98939E-07
     18     (3,1,3)               0.0000       0.0000      -5.00185E-03  0.0000       0.0000       0.0000       5.00185E-03  9.95062E-12  1.98939E-07
     19     (3,1,4)               0.0000       0.0000      -5.00185E-03  0.0000       0.0000       0.0000       5.00185E-03  9.95062E-12  1.98939E-07
     20     (3,1,5)               0.0000       0.0000      -5.00185E-03  0.0000       0.0000       0.0000       5.00185E-03  9.95062E-12  1.98939E-07
     21     (3,1,6)               0.0000       0.0000      -5.00185E-03  0.0000       0.0000       0.0000       5.00185E-03  9.95062E-12  1.98939E-07
     22     (3,1,7)               0.0000       0.0000      -5.00185E-03  0.0000       0.0000       0.0000       5.00185E-03  9.95062E-12  1.98939E-07
     23     (3,1,8)               0.0000       0.0000      -5.00185E-03  0.0000       0.0000       0.0000       5.00185E-03  9.95062E-12  1.98939E-07
     24     (3,1,9)               0.0000       0.0000      -5.00185E-03  0.0000       0.0000       0.0000       5.00185E-03  9.95062E-12  1.98939E-07
 ----------------------------------------------------------------------------------------------------------------------------------------------------


1
  HEAD IN LAYER   1 AT END OF TIME STEP   1 IN STRESS PERIOD    4
  ---------------------------------------------------------------------------

                1               2               3               4               5               6               7               8               9              10
 ................................................................................................................................................................
   1     -10.7861        -10.7860        -10.7860        -10.7859        -10.7859        -10.7859        -10.7859        -10.7860        -10.7860        -10.7861    
1
  HEAD IN LAYER   2 AT END OF TIME STEP   1 IN STRESS PERIOD    4
  ---------------------------------------------------------------------------

                1               2               3               4               5               6               7               8               9              10
 ................................................................................................................................................................
   1     -10.7861        -10.7860        -10.7860        -10.7859        -10.7859        -10.7859        -10.7859        -10.7860        -10.7860        -10.7861    
1
  HEAD IN LAYER   3 AT END OF TIME STEP   1 IN STRESS PERIOD    4
  ---------------------------------------------------------------------------

                1               2               3               4               5               6               7               8               9              10
 ................................................................................................................................................................
   1     -10.5019        -10.5035        -10.5046        -10.5054        -10.5058        -10.5058        -10.5054        -10.5046        -10.5035        -10.5019    

 HEAD WILL BE SAVED ON UNIT 1015 AT END OF TIME STEP    1, STRESS PERIOD    4


  UZF_0 BUDGET FOR ENTIRE MODEL AT END OF TIME STEP    1, STRESS PERIOD   4
  ------------------------------------------------------------------------------

     CUMULATIVE UZF_0      L**3       RATES FOR THIS TIME STEP      L**3/T
     ------------------                 ------------------------

           IN:                                      IN:
           ---                                      ---
                 GWF =           0.0000                   GWF =           0.0000
        INFILTRATION =          14.8800          INFILTRATION =       8.0000E-02
             REJ-INF =           0.0000               REJ-INF =           0.0000
                UZET =           0.0000                  UZET =           0.0000
             STORAGE =           9.1308               STORAGE =           0.4787

            TOTAL IN =          24.0108              TOTAL IN =           0.5587

          OUT:                                     OUT:
          ----                                     ----
                 GWF =           5.5073                   GWF =           0.5507
        INFILTRATION =           0.0000          INFILTRATION =           0.0000
             REJ-INF =           0.0000               REJ-INF =           0.0000
                UZET =           0.2400                  UZET =       8.0000E-03
             STORAGE =          18.2635               STORAGE =           0.0000

           TOTAL OUT =          24.0108             TOTAL OUT =           0.5587

            IN - OUT =       1.9694E-07              IN - OUT =       3.3344E-09

 PERCENT DISCREPANCY =           0.00     PERCENT DISCREPANCY =           0.00



  VOLUME BUDGET FOR ENTIRE MODEL AT END OF TIME STEP    1, STRESS PERIOD   4
  ---------------------------------------------------------------------------------------------------

     CUMULATIVE VOLUME      L**3       RATES FOR THIS TIME STEP      L**3/T          PACKAGE NAME    
     ------------------                 ------------------------                     ----------------

           IN:                                      IN:
           ---                                      ---
              STO-SS =       2.3750E-04                STO-SS =           0.0000     STORAGE                          
              STO-SY =           1.5000                STO-SY =           0.0000     STORAGE                          
                 GHB =          38.6525                   GHB =           3.8652     GHB_0                            
           UZF-GWRCH =           5.5073             UZF-GWRCH =           0.5507     UZF_0                            
             UZF-GWD =           0.0000               UZF-GWD =           0.0000     UZF_0                            
            UZF-GWET =           0.0000              UZF-GWET =           0.0000     UZF_0                            

            TOTAL IN =          45.6600              TOTAL IN =           4.4160

          OUT:                                     OUT:
          ----                                     ----
              STO-SS =       1.7728E-02                STO-SS =       1.7728E-03     STORAGE                          
              STO-SY =          44.1421                STO-SY =           4.4142     STORAGE                          
                 GHB =           1.5002                   GHB =           0.0000     GHB_0                            
           UZF-GWRCH =           0.0000             UZF-GWRCH =           0.0000     UZF_0                            
             UZF-GWD =           0.0000               UZF-GWD =           0.0000     UZF_0                            
            UZF-GWET =           0.0000              UZF-GWET =           0.0000     UZF_0                            

           TOTAL OUT =          45.6600             TOTAL OUT =           4.4160

            IN - OUT =      -9.2619E-08              IN - OUT =      -3.4956E-09

 PERCENT DISCREPANCY =          -0.00     PERCENT DISCREPANCY =          -0.00




         TIME SUMMARY AT END OF TIME STEP    1 IN STRESS PERIOD    4
                    SECONDS     MINUTES      HOURS       DAYS        YEARS
                    -----------------------------------------------------------
   TIME STEP LENGTH 8.64000E+05  14400.      240.00      10.000     2.73785E-02
 STRESS PERIOD TIME 8.64000E+05  14400.      240.00      10.000     2.73785E-02
         TOTAL TIME 3.45600E+06  57600.      960.00      40.000     0.10951    


end timestep


start timestep kper="5" kstp="1" mode="normal"


 OUTPUT CONTROL FOR STRESS PERIOD 5 IS REPEATED USING SETTINGS FROM A PREVIOUS STRESS PERIOD.


 STRESS PERIOD 5 IS TRANSIENT

 UBDSV1 SAVING           STO-SS ON UNIT   1014 AT TIME STEP      1, STRESS PERIOD      5
 UBDSV1 SAVING           STO-SY ON UNIT   1014 AT TIME STEP      1, STRESS PERIOD      5
 UBDSV1 SAVING     FLOW-JA-FACE ON UNIT   1014 AT TIME STEP      1, STRESS PERIOD      5
 UBDSV06 SAVING              GHB IN MODEL UZF_3LAY_WC_CHK  PACKAGE UZF_3LAY_WC_CHK CONNECTED TO MODEL UZF_3LAY_WC_CHK  PACKAGE GHB_0            ON UNIT   1014 AT TIME STEP      1, STRESS PERIOD      5
 UBDSV06 SAVING        UZF-GWRCH IN MODEL UZF_3LAY_WC_CHK  PACKAGE UZF_3LAY_WC_CHK CONNECTED TO MODEL UZF_3LAY_WC_CHK  PACKAGE UZF_0            ON UNIT   1014 AT TIME STEP      1, STRESS PERIOD      5
 UBDSV06 SAVING          UZF-GWD IN MODEL UZF_3LAY_WC_CHK  PACKAGE UZF_3LAY_WC_CHK CONNECTED TO MODEL UZF_3LAY_WC_CHK  PACKAGE UZF_0            ON UNIT   1014 AT TIME STEP      1, STRESS PERIOD      5
 UBDSV06 SAVING         UZF-GWET IN MODEL UZF_3LAY_WC_CHK  PACKAGE UZF_3LAY_WC_CHK CONNECTED TO MODEL UZF_3LAY_WC_CHK  PACKAGE UZF_0            ON UNIT   1014 AT TIME STEP      1, STRESS PERIOD      5
 UBDSV06 SAVING     FLOW-JA-FACE IN MODEL UZF_3LAY_WC_CHK  PACKAGE UZF_0           CONNECTED TO MODEL UZF_3LAY_WC_CHK  PACKAGE UZF_0            ON UNIT   1011 AT TIME STEP      1, STRESS PERIOD      5
 UBDSV06 SAVING              GWF IN MODEL UZF_3LAY_WC_CHK  PACKAGE UZF_0           CONNECTED TO MODEL UZF_3LAY_WC_CHK  PACKAGE UZF_3LAY_WC_CHK  ON UNIT   1011 AT TIME STEP      1, STRESS PERIOD      5
 UBDSV06 SAVING     INFILTRATION IN MODEL UZF_3LAY_WC_CHK  PACKAGE UZF_0           CONNECTED TO MODEL UZF_3LAY_WC_CHK  PACKAGE UZF_0            ON UNIT   1011 AT TIME STEP      1, STRESS PERIOD      5
 UBDSV06 SAVING          REJ-INF IN MODEL UZF_3LAY_WC_CHK  PACKAGE UZF_0           CONNECTED TO MODEL UZF_3LAY_WC_CHK  PACKAGE UZF_0            ON UNIT   1011 AT TIME STEP      1, STRESS PERIOD      5
 UBDSV06 SAVING             UZET IN MODEL UZF_3LAY_WC_CHK  PACKAGE UZF_0           CONNECTED TO MODEL UZF_3LAY_WC_CHK  PACKAGE UZF_0            ON UNIT   1011 AT TIME STEP      1, STRESS PERIOD      5
 UBDSV06 SAVING          STORAGE IN MODEL UZF_3LAY_WC_CHK  PACKAGE UZF_0           CONNECTED TO MODEL UZF_3LAY_WC_CHK  PACKAGE UZF_0            ON UNIT   1011 AT TIME STEP      1, STRESS PERIOD      5

 GHB PACKAGE (GHB_0) FLOW RATES   PERIOD      5   STEP        1
 -----------------------------------------------
   NUMBER   CELLID                    RATE      
 -----------------------------------------------
     1      (3,1,1)              -9.31125270E-02
     2      (3,1,10)             -9.31125284E-02
 -----------------------------------------------




 UZF-GWRCH PACKAGE (UZF_0) FLOW RATES   PERIOD      5   STEP        1
 ----------------------------------------------------------------------------------------
   NUMBER   CELLID                    RATE       NAME                                    
 ----------------------------------------------------------------------------------------
     1      (1,1,2)               0.0000000      UZF01                                   
     2      (1,1,3)               0.0000000      UZF02                                   
     3      (1,1,4)               0.0000000      UZF03                                   
     4      (1,1,5)               0.0000000      UZF04                                   
     5      (1,1,6)               0.0000000      UZF05                                   
     6      (1,1,7)               0.0000000      UZF06                                   
     7      (1,1,8)               0.0000000      UZF07                                   
     8      (1,1,9)               0.0000000      UZF08                                   
     9      (2,1,2)               3.48870517E-02 UZF09                                   
     10     (2,1,3)               3.48867487E-02 UZF10                                   
     11     (2,1,4)               3.48865558E-02 UZF11                                   
     12     (2,1,5)               3.48864620E-02 UZF12                                   
     13     (2,1,6)               3.48864620E-02 UZF13                                   
     14     (2,1,7)               3.48865558E-02 UZF14                                   
     15     (2,1,8)               3.48867487E-02 UZF15                                   
     16     (2,1,9)               3.48870517E-02 UZF16                                   
     17     (3,1,2)               0.0000000      UZF17                                   
     18     (3,1,3)               0.0000000      UZF18                                   
     19     (3,1,4)               0.0000000      UZF19                                   
     20     (3,1,5)               0.0000000      UZF20                                   
     21     (3,1,6)               0.0000000      UZF21                                   
     22     (3,1,7)               0.0000000      UZF22                                   
     23     (3,1,8)               0.0000000      UZF23                                   
     24     (3,1,9)               0.0000000      UZF24                                   
 ----------------------------------------------------------------------------------------




 UZF-GWD PACKAGE (UZF_0) FLOW RATES   PERIOD      5   STEP        1
 ----------------------------------------------------------------------------------------
   NUMBER   CELLID                    RATE       NAME                                    
 ----------------------------------------------------------------------------------------
     1      (1,1,2)               0.0000000      UZF01                                   
     2      (1,1,3)               0.0000000      UZF02                                   
     3      (1,1,4)               0.0000000      UZF03                                   
     4      (1,1,5)               0.0000000      UZF04                                   
     5      (1,1,6)               0.0000000      UZF05                                   
     6      (1,1,7)               0.0000000      UZF06                                   
     7      (1,1,8)               0.0000000      UZF07                                   
     8      (1,1,9)               0.0000000      UZF08                                   
     9      (2,1,2)               -0.0000000     UZF09                                   
     10     (2,1,3)               -0.0000000     UZF10                                   
     11     (2,1,4)               -0.0000000     UZF11                                   
     12     (2,1,5)               -0.0000000     UZF12                                   
     13     (2,1,6)               -0.0000000     UZF13                                   
     14     (2,1,7)               -0.0000000     UZF14                                   
     15     (2,1,8)               -0.0000000     UZF15                                   
     16     (2,1,9)               -0.0000000     UZF16                                   
     17     (3,1,2)               -0.0000000     UZF17                                   
     18     (3,1,3)               -0.0000000     UZF18                                   
     19     (3,1,4)               -0.0000000     UZF19                                   
     20     (3,1,5)               -0.0000000     UZF20                                   
     21     (3,1,6)               -0.0000000     UZF21                                   
     22     (3,1,7)               -0.0000000     UZF22                                   
     23     (3,1,8)               -0.0000000     UZF23                                   
     24     (3,1,9)               -0.0000000     UZF24                                   
 ----------------------------------------------------------------------------------------




 UZF-GWET PACKAGE (UZF_0) FLOW RATES   PERIOD      5   STEP        1
 ----------------------------------------------------------------------------------------
   NUMBER   CELLID                    RATE       NAME                                    
 ----------------------------------------------------------------------------------------
     1      (1,1,2)               -0.0000000     UZF01                                   
     2      (1,1,3)               -0.0000000     UZF02                                   
     3      (1,1,4)               -0.0000000     UZF03                                   
     4      (1,1,5)               -0.0000000     UZF04                                   
     5      (1,1,6)               -0.0000000     UZF05                                   
     6      (1,1,7)               -0.0000000     UZF06                                   
     7      (1,1,8)               -0.0000000     UZF07                                   
     8      (1,1,9)               -0.0000000     UZF08                                   
     9      (2,1,2)               -0.0000000     UZF09                                   
     10     (2,1,3)               -0.0000000     UZF10                                   
     11     (2,1,4)               -0.0000000     UZF11                                   
     12     (2,1,5)               -0.0000000     UZF12                                   
     13     (2,1,6)               -0.0000000     UZF13                                   
     14     (2,1,7)               -0.0000000     UZF14                                   
     15     (2,1,8)               -0.0000000     UZF15                                   
     16     (2,1,9)               -0.0000000     UZF16                                   
     17     (3,1,2)               -0.0000000     UZF17                                   
     18     (3,1,3)               -0.0000000     UZF18                                   
     19     (3,1,4)               -0.0000000     UZF19                                   
     20     (3,1,5)               -0.0000000     UZF20                                   
     21     (3,1,6)               -0.0000000     UZF21                                   
     22     (3,1,7)               -0.0000000     UZF22                                   
     23     (3,1,8)               -0.0000000     UZF23                                   
     24     (3,1,9)               -0.0000000     UZF24                                   
 ----------------------------------------------------------------------------------------




 UZF_0 PACKAGE - SUMMARY OF FLOWS FOR EACH CONTROL VOLUME   PERIOD      5   STEP        1
 ----------------------------------------------------------------------------------------------------------------------------------------------------
                                                                                                                                           PERCENT   
   NUMBER   CELLID                  INFLOW      OUTFLOW        GWF      INFILTRATION   REJ INF        UZET       STORAGE      IN - OUT    DIFFERENCE 
 ----------------------------------------------------------------------------------------------------------------------------------------------------
     1      (1,1,2)               0.0000      -9.81609E-03  0.0000       1.00000E-03  0.0000      -1.10000E-02  1.98161E-02  1.08865E-10  5.22983E-07
     2      (1,1,3)               0.0000      -9.81609E-03  0.0000       1.00000E-03  0.0000      -1.10000E-02  1.98161E-02  1.08865E-10  5.22983E-07
     3      (1,1,4)               0.0000      -9.81609E-03  0.0000       1.00000E-03  0.0000      -1.10000E-02  1.98161E-02  1.08865E-10  5.22983E-07
     4      (1,1,5)               0.0000      -9.81609E-03  0.0000       1.00000E-03  0.0000      -1.10000E-02  1.98161E-02  1.08865E-10  5.22983E-07
     5      (1,1,6)               0.0000      -9.81609E-03  0.0000       1.00000E-03  0.0000      -1.10000E-02  1.98161E-02  1.08865E-10  5.22983E-07
     6      (1,1,7)               0.0000      -9.81609E-03  0.0000       1.00000E-03  0.0000      -1.10000E-02  1.98161E-02  1.08865E-10  5.22983E-07
     7      (1,1,8)               0.0000      -9.81609E-03  0.0000       1.00000E-03  0.0000      -1.10000E-02  1.98161E-02  1.08865E-10  5.22983E-07
     8      (1,1,9)               0.0000      -9.81609E-03  0.0000       1.00000E-03  0.0000      -1.10000E-02  1.98161E-02  1.08865E-10  5.22983E-07
     9      (2,1,2)               9.81609E-03  0.0000      -3.48871E-02  0.0000       0.0000       0.0000       2.50710E-02  3.90014E-10  1.11793E-06
     10     (2,1,3)               9.81609E-03  0.0000      -3.48867E-02  0.0000       0.0000       0.0000       2.50707E-02  3.90014E-10  1.11794E-06
     11     (2,1,4)               9.81609E-03  0.0000      -3.48866E-02  0.0000       0.0000       0.0000       2.50705E-02  3.90014E-10  1.11795E-06
     12     (2,1,5)               9.81609E-03  0.0000      -3.48865E-02  0.0000       0.0000       0.0000       2.50704E-02  3.90014E-10  1.11795E-06
     13     (2,1,6)               9.81609E-03  0.0000      -3.48865E-02  0.0000       0.0000       0.0000       2.50704E-02  3.90014E-10  1.11795E-06
     14     (2,1,7)               9.81609E-03  0.0000      -3.48866E-02  0.0000       0.0000       0.0000       2.50705E-02  3.90014E-10  1.11795E-06
     15     (2,1,8)               9.81609E-03  0.0000      -3.48867E-02  0.0000       0.0000       0.0000       2.50707E-02  3.90014E-10  1.11794E-06
     16     (2,1,9)               9.81609E-03  0.0000      -3.48871E-02  0.0000       0.0000       0.0000       2.50710E-02  3.90014E-10  1.11793E-06
     17     (3,1,2)               0.0000       0.0000       0.0000       0.0000       0.0000       0.0000       0.0000       0.0000       0.0000     
     18     (3,1,3)               0.0000       0.0000       0.0000       0.0000       0.0000       0.0000       0.0000       0.0000       0.0000     
     19     (3,1,4)               0.0000       0.0000       0.0000       0.0000       0.0000       0.0000       0.0000       0.0000       0.0000     
     20     (3,1,5)               0.0000       0.0000       0.0000       0.0000       0.0000       0.0000       0.0000       0.0000       0.0000     
     21     (3,1,6)               0.0000       0.0000       0.0000       0.0000       0.0000       0.0000       0.0000       0.0000       0.0000     
     22     (3,1,7)               0.0000       0.0000       0.0000       0.0000       0.0000       0.0000       0.0000       0.0000       0.0000     
     23     (3,1,8)               0.0000       0.0000       0.0000       0.0000       0.0000       0.0000       0.0000       0.0000       0.0000     
     24     (3,1,9)               0.0000       0.0000       0.0000       0.0000       0.0000       0.0000       0.0000       0.0000       0.0000     
 ----------------------------------------------------------------------------------------------------------------------------------------------------


1
  HEAD IN LAYER   1 AT END OF TIME STEP   1 IN STRESS PERIOD    5
  ---------------------------------------------------------------------------

                1               2               3               4               5               6               7               8               9              10
 ................................................................................................................................................................
   1     -10.4766        -10.4765        -10.4765        -10.4765        -10.4765        -10.4765        -10.4765        -10.4765        -10.4765        -10.4766    
1
  HEAD IN LAYER   2 AT END OF TIME STEP   1 IN STRESS PERIOD    5
  ---------------------------------------------------------------------------

                1               2               3               4               5               6               7               8               9              10
 ................................................................................................................................................................
   1     -10.4766        -10.4765        -10.4765        -10.4765        -10.4765        -10.4765        -10.4765        -10.4765        -10.4765        -10.4766    
1
  HEAD IN LAYER   3 AT END OF TIME STEP   1 IN STRESS PERIOD    5
  ---------------------------------------------------------------------------

                1               2               3               4               5               6               7               8               9              10
 ................................................................................................................................................................
   1     -10.4999        -10.4998        -10.4998        -10.4997        -10.4997        -10.4997        -10.4997        -10.4998        -10.4998        -10.4999    

 HEAD WILL BE SAVED ON UNIT 1015 AT END OF TIME STEP    1, STRESS PERIOD    5


  UZF_0 BUDGET FOR ENTIRE MODEL AT END OF TIME STEP    1, STRESS PERIOD   5
  ------------------------------------------------------------------------------

     CUMULATIVE UZF_0      L**3       RATES FOR THIS TIME STEP      L**3/T
     ------------------                 ------------------------

           IN:                                      IN:
           ---                                      ---
                 GWF =           0.0000                   GWF =           0.0000
        INFILTRATION =          14.9600          INFILTRATION =       8.0000E-03
             REJ-INF =           0.0000               REJ-INF =           0.0000
                UZET =           0.0000                  UZET =           0.0000
             STORAGE =          12.7218               STORAGE =           0.3591

            TOTAL IN =          27.6818              TOTAL IN =           0.3671

          OUT:                                     OUT:
          ----                                     ----
                 GWF =           8.2983                   GWF =           0.2791
        INFILTRATION =           0.0000          INFILTRATION =           0.0000
             REJ-INF =           0.0000               REJ-INF =           0.0000
                UZET =           1.1200                  UZET =       8.8000E-02
             STORAGE =          18.2635               STORAGE =           0.0000

           TOTAL OUT =          27.6818             TOTAL OUT =           0.3671

            IN - OUT =       2.3685E-07              IN - OUT =       3.9910E-09

 PERCENT DISCREPANCY =           0.00     PERCENT DISCREPANCY =           0.00



  VOLUME BUDGET FOR ENTIRE MODEL AT END OF TIME STEP    1, STRESS PERIOD   5
  ---------------------------------------------------------------------------------------------------

     CUMULATIVE VOLUME      L**3       RATES FOR THIS TIME STEP      L**3/T          PACKAGE NAME    
     ------------------                 ------------------------                     ----------------

           IN:                                      IN:
           ---                                      ---
              STO-SS =       2.3750E-04                STO-SS =           0.0000     STORAGE                          
              STO-SY =           1.5000                STO-SY =           0.0000     STORAGE                          
                 GHB =          38.6525                   GHB =           0.0000     GHB_0                            
           UZF-GWRCH =           8.2983             UZF-GWRCH =           0.2791     UZF_0                            
             UZF-GWD =           0.0000               UZF-GWD =           0.0000     UZF_0                            
            UZF-GWET =           0.0000              UZF-GWET =           0.0000     UZF_0                            

            TOTAL IN =          48.4510              TOTAL IN =           0.2791

          OUT:                                     OUT:
          ----                                     ----
              STO-SS =       1.8023E-02                STO-SS =       2.9437E-05     STORAGE                          
              STO-SY =          45.0705                STO-SY =       9.2839E-02     STORAGE                          
                 GHB =           3.3625                   GHB =           0.1862     GHB_0                            
           UZF-GWRCH =           0.0000             UZF-GWRCH =           0.0000     UZF_0                            
             UZF-GWD =           0.0000               UZF-GWD =           0.0000     UZF_0                            
            UZF-GWET =           0.0000              UZF-GWET =           0.0000     UZF_0                            

           TOTAL OUT =          48.4510             TOTAL OUT =           0.2791

            IN - OUT =       5.5251E-08              IN - OUT =       1.4787E-08

 PERCENT DISCREPANCY =           0.00     PERCENT DISCREPANCY =           0.00




         TIME SUMMARY AT END OF TIME STEP    1 IN STRESS PERIOD    5
                    SECONDS     MINUTES      HOURS       DAYS        YEARS
                    -----------------------------------------------------------
   TIME STEP LENGTH 8.64000E+05  14400.      240.00      10.000     2.73785E-02
 STRESS PERIOD TIME 8.64000E+05  14400.      240.00      10.000     2.73785E-02
         TOTAL TIME 4.32000E+06  72000.      1200.0      50.000     0.13689    


end timestep


start timestep kper="6" kstp="1" mode="normal"


 OUTPUT CONTROL FOR STRESS PERIOD 6 IS REPEATED USING SETTINGS FROM A PREVIOUS STRESS PERIOD.


 STRESS PERIOD 6 IS TRANSIENT

 UBDSV1 SAVING           STO-SS ON UNIT   1014 AT TIME STEP      1, STRESS PERIOD      6
 UBDSV1 SAVING           STO-SY ON UNIT   1014 AT TIME STEP      1, STRESS PERIOD      6
 UBDSV1 SAVING     FLOW-JA-FACE ON UNIT   1014 AT TIME STEP      1, STRESS PERIOD      6
 UBDSV06 SAVING              GHB IN MODEL UZF_3LAY_WC_CHK  PACKAGE UZF_3LAY_WC_CHK CONNECTED TO MODEL UZF_3LAY_WC_CHK  PACKAGE GHB_0            ON UNIT   1014 AT TIME STEP      1, STRESS PERIOD      6
 UBDSV06 SAVING        UZF-GWRCH IN MODEL UZF_3LAY_WC_CHK  PACKAGE UZF_3LAY_WC_CHK CONNECTED TO MODEL UZF_3LAY_WC_CHK  PACKAGE UZF_0            ON UNIT   1014 AT TIME STEP      1, STRESS PERIOD      6
 UBDSV06 SAVING          UZF-GWD IN MODEL UZF_3LAY_WC_CHK  PACKAGE UZF_3LAY_WC_CHK CONNECTED TO MODEL UZF_3LAY_WC_CHK  PACKAGE UZF_0            ON UNIT   1014 AT TIME STEP      1, STRESS PERIOD      6
 UBDSV06 SAVING         UZF-GWET IN MODEL UZF_3LAY_WC_CHK  PACKAGE UZF_3LAY_WC_CHK CONNECTED TO MODEL UZF_3LAY_WC_CHK  PACKAGE UZF_0            ON UNIT   1014 AT TIME STEP      1, STRESS PERIOD      6
 UBDSV06 SAVING     FLOW-JA-FACE IN MODEL UZF_3LAY_WC_CHK  PACKAGE UZF_0           CONNECTED TO MODEL UZF_3LAY_WC_CHK  PACKAGE UZF_0            ON UNIT   1011 AT TIME STEP      1, STRESS PERIOD      6
 UBDSV06 SAVING              GWF IN MODEL UZF_3LAY_WC_CHK  PACKAGE UZF_0           CONNECTED TO MODEL UZF_3LAY_WC_CHK  PACKAGE UZF_3LAY_WC_CHK  ON UNIT   1011 AT TIME STEP      1, STRESS PERIOD      6
 UBDSV06 SAVING     INFILTRATION IN MODEL UZF_3LAY_WC_CHK  PACKAGE UZF_0           CONNECTED TO MODEL UZF_3LAY_WC_CHK  PACKAGE UZF_0            ON UNIT   1011 AT TIME STEP      1, STRESS PERIOD      6
 UBDSV06 SAVING          REJ-INF IN MODEL UZF_3LAY_WC_CHK  PACKAGE UZF_0           CONNECTED TO MODEL UZF_3LAY_WC_CHK  PACKAGE UZF_0            ON UNIT   1011 AT TIME STEP      1, STRESS PERIOD      6
 UBDSV06 SAVING             UZET IN MODEL UZF_3LAY_WC_CHK  PACKAGE UZF_0           CONNECTED TO MODEL UZF_3LAY_WC_CHK  PACKAGE UZF_0            ON UNIT   1011 AT TIME STEP      1, STRESS PERIOD      6
 UBDSV06 SAVING          STORAGE IN MODEL UZF_3LAY_WC_CHK  PACKAGE UZF_0           CONNECTED TO MODEL UZF_3LAY_WC_CHK  PACKAGE UZF_0            ON UNIT   1011 AT TIME STEP      1, STRESS PERIOD      6

 GHB PACKAGE (GHB_0) FLOW RATES   PERIOD      6   STEP        1
 -----------------------------------------------
   NUMBER   CELLID                    RATE      
 -----------------------------------------------
     1      (3,1,1)              -4.79575623E-02
     2      (3,1,10)             -4.79575619E-02
 -----------------------------------------------




 UZF-GWRCH PACKAGE (UZF_0) FLOW RATES   PERIOD      6   STEP        1
 ----------------------------------------------------------------------------------------
   NUMBER   CELLID                    RATE       NAME                                    
 ----------------------------------------------------------------------------------------
     1      (1,1,2)               0.0000000      UZF01                                   
     2      (1,1,3)               0.0000000      UZF02                                   
     3      (1,1,4)               0.0000000      UZF03                                   
     4      (1,1,5)               0.0000000      UZF04                                   
     5      (1,1,6)               0.0000000      UZF05                                   
     6      (1,1,7)               0.0000000      UZF06                                   
     7      (1,1,8)               0.0000000      UZF07                                   
     8      (1,1,9)               0.0000000      UZF08                                   
     9      (2,1,2)               1.15624416E-02 UZF09                                   
     10     (2,1,3)               1.15622338E-02 UZF10                                   
     11     (2,1,4)               1.15620952E-02 UZF11                                   
     12     (2,1,5)               1.15620259E-02 UZF12                                   
     13     (2,1,6)               1.15620259E-02 UZF13                                   
     14     (2,1,7)               1.15620952E-02 UZF14                                   
     15     (2,1,8)               1.15622338E-02 UZF15                                   
     16     (2,1,9)               1.15624416E-02 UZF16                                   
     17     (3,1,2)               0.0000000      UZF17                                   
     18     (3,1,3)               0.0000000      UZF18                                   
     19     (3,1,4)               0.0000000      UZF19                                   
     20     (3,1,5)               0.0000000      UZF20                                   
     21     (3,1,6)               0.0000000      UZF21                                   
     22     (3,1,7)               0.0000000      UZF22                                   
     23     (3,1,8)               0.0000000      UZF23                                   
     24     (3,1,9)               0.0000000      UZF24                                   
 ----------------------------------------------------------------------------------------




 UZF-GWD PACKAGE (UZF_0) FLOW RATES   PERIOD      6   STEP        1
 ----------------------------------------------------------------------------------------
   NUMBER   CELLID                    RATE       NAME                                    
 ----------------------------------------------------------------------------------------
     1      (1,1,2)               0.0000000      UZF01                                   
     2      (1,1,3)               0.0000000      UZF02                                   
     3      (1,1,4)               0.0000000      UZF03                                   
     4      (1,1,5)               0.0000000      UZF04                                   
     5      (1,1,6)               0.0000000      UZF05                                   
     6      (1,1,7)               0.0000000      UZF06                                   
     7      (1,1,8)               0.0000000      UZF07                                   
     8      (1,1,9)               0.0000000      UZF08                                   
     9      (2,1,2)               -0.0000000     UZF09                                   
     10     (2,1,3)               -0.0000000     UZF10                                   
     11     (2,1,4)               -0.0000000     UZF11                                   
     12     (2,1,5)               -0.0000000     UZF12                                   
     13     (2,1,6)               -0.0000000     UZF13                                   
     14     (2,1,7)               -0.0000000     UZF14                                   
     15     (2,1,8)               -0.0000000     UZF15                                   
     16     (2,1,9)               -0.0000000     UZF16                                   
     17     (3,1,2)               -0.0000000     UZF17                                   
     18     (3,1,3)               -0.0000000     UZF18                                   
     19     (3,1,4)               -0.0000000     UZF19                                   
     20     (3,1,5)               -0.0000000     UZF20                                   
     21     (3,1,6)               -0.0000000     UZF21                                   
     22     (3,1,7)               -0.0000000     UZF22                                   
     23     (3,1,8)               -0.0000000     UZF23                                   
     24     (3,1,9)               -0.0000000     UZF24                                   
 ----------------------------------------------------------------------------------------




 UZF-GWET PACKAGE (UZF_0) FLOW RATES   PERIOD      6   STEP        1
 ----------------------------------------------------------------------------------------
   NUMBER   CELLID                    RATE       NAME                                    
 ----------------------------------------------------------------------------------------
     1      (1,1,2)               -0.0000000     UZF01                                   
     2      (1,1,3)               -0.0000000     UZF02                                   
     3      (1,1,4)               -0.0000000     UZF03                                   
     4      (1,1,5)               -0.0000000     UZF04                                   
     5      (1,1,6)               -0.0000000     UZF05                                   
     6      (1,1,7)               -0.0000000     UZF06                                   
     7      (1,1,8)               -0.0000000     UZF07                                   
     8      (1,1,9)               -0.0000000     UZF08                                   
     9      (2,1,2)               -0.0000000     UZF09                                   
     10     (2,1,3)               -0.0000000     UZF10                                   
     11     (2,1,4)               -0.0000000     UZF11                                   
     12     (2,1,5)               -0.0000000     UZF12                                   
     13     (2,1,6)               -0.0000000     UZF13                                   
     14     (2,1,7)               -0.0000000     UZF14                                   
     15     (2,1,8)               -0.0000000     UZF15                                   
     16     (2,1,9)               -0.0000000     UZF16                                   
     17     (3,1,2)               -0.0000000     UZF17                                   
     18     (3,1,3)               -0.0000000     UZF18                                   
     19     (3,1,4)               -0.0000000     UZF19                                   
     20     (3,1,5)               -0.0000000     UZF20                                   
     21     (3,1,6)               -0.0000000     UZF21                                   
     22     (3,1,7)               -0.0000000     UZF22                                   
     23     (3,1,8)               -0.0000000     UZF23                                   
     24     (3,1,9)               -0.0000000     UZF24                                   
 ----------------------------------------------------------------------------------------




 UZF_0 PACKAGE - SUMMARY OF FLOWS FOR EACH CONTROL VOLUME   PERIOD      6   STEP        1
 ----------------------------------------------------------------------------------------------------------------------------------------------------
                                                                                                                                           PERCENT   
   NUMBER   CELLID                  INFLOW      OUTFLOW        GWF      INFILTRATION   REJ INF        UZET       STORAGE      IN - OUT    DIFFERENCE 
 ----------------------------------------------------------------------------------------------------------------------------------------------------
     1      (1,1,2)               0.0000      -7.37329E-03  0.0000       1.00000E-03  0.0000      -1.03937E-02  1.67670E-02 -4.96429E-13 -2.79411E-09
     2      (1,1,3)               0.0000      -7.37329E-03  0.0000       1.00000E-03  0.0000      -1.03937E-02  1.67670E-02 -4.96429E-13 -2.79411E-09
     3      (1,1,4)               0.0000      -7.37329E-03  0.0000       1.00000E-03  0.0000      -1.03937E-02  1.67670E-02 -4.96429E-13 -2.79411E-09
     4      (1,1,5)               0.0000      -7.37329E-03  0.0000       1.00000E-03  0.0000      -1.03937E-02  1.67670E-02 -4.96429E-13 -2.79411E-09
     5      (1,1,6)               0.0000      -7.37329E-03  0.0000       1.00000E-03  0.0000      -1.03937E-02  1.67670E-02 -4.96429E-13 -2.79411E-09
     6      (1,1,7)               0.0000      -7.37329E-03  0.0000       1.00000E-03  0.0000      -1.03937E-02  1.67670E-02 -4.96429E-13 -2.79411E-09
     7      (1,1,8)               0.0000      -7.37329E-03  0.0000       1.00000E-03  0.0000      -1.03937E-02  1.67670E-02 -4.96429E-13 -2.79411E-09
     8      (1,1,9)               0.0000      -7.37329E-03  0.0000       1.00000E-03  0.0000      -1.03937E-02  1.67670E-02 -4.96429E-13 -2.79411E-09
     9      (2,1,2)               7.37329E-03  0.0000      -1.15624E-02  0.0000       0.0000       0.0000       4.18915E-03  2.89830E-10  2.50665E-06
     10     (2,1,3)               7.37329E-03  0.0000      -1.15622E-02  0.0000       0.0000       0.0000       4.18895E-03  2.89830E-10  2.50670E-06
     11     (2,1,4)               7.37329E-03  0.0000      -1.15621E-02  0.0000       0.0000       0.0000       4.18881E-03  2.89830E-10  2.50673E-06
     12     (2,1,5)               7.37329E-03  0.0000      -1.15620E-02  0.0000       0.0000       0.0000       4.18874E-03  2.89830E-10  2.50674E-06
     13     (2,1,6)               7.37329E-03  0.0000      -1.15620E-02  0.0000       0.0000       0.0000       4.18874E-03  2.89830E-10  2.50674E-06
     14     (2,1,7)               7.37329E-03  0.0000      -1.15621E-02  0.0000       0.0000       0.0000       4.18881E-03  2.89830E-10  2.50673E-06
     15     (2,1,8)               7.37329E-03  0.0000      -1.15622E-02  0.0000       0.0000       0.0000       4.18895E-03  2.89830E-10  2.50670E-06
     16     (2,1,9)               7.37329E-03  0.0000      -1.15624E-02  0.0000       0.0000       0.0000       4.18915E-03  2.89830E-10  2.50665E-06
     17     (3,1,2)               0.0000       0.0000       0.0000       0.0000       0.0000       0.0000       0.0000       0.0000       0.0000     
     18     (3,1,3)               0.0000       0.0000       0.0000       0.0000       0.0000       0.0000       0.0000       0.0000       0.0000     
     19     (3,1,4)               0.0000       0.0000       0.0000       0.0000       0.0000       0.0000       0.0000       0.0000       0.0000     
     20     (3,1,5)               0.0000       0.0000       0.0000       0.0000       0.0000       0.0000       0.0000       0.0000       0.0000     
     21     (3,1,6)               0.0000       0.0000       0.0000       0.0000       0.0000       0.0000       0.0000       0.0000       0.0000     
     22     (3,1,7)               0.0000       0.0000       0.0000       0.0000       0.0000       0.0000       0.0000       0.0000       0.0000     
     23     (3,1,8)               0.0000       0.0000       0.0000       0.0000       0.0000       0.0000       0.0000       0.0000       0.0000     
     24     (3,1,9)               0.0000       0.0000       0.0000       0.0000       0.0000       0.0000       0.0000       0.0000       0.0000     
 ----------------------------------------------------------------------------------------------------------------------------------------------------


1
  HEAD IN LAYER   1 AT END OF TIME STEP   1 IN STRESS PERIOD    6
  ---------------------------------------------------------------------------

                1               2               3               4               5               6               7               8               9              10
 ................................................................................................................................................................
   1     -10.4879        -10.4879        -10.4879        -10.4879        -10.4879        -10.4879        -10.4879        -10.4879        -10.4879        -10.4879    
1
  HEAD IN LAYER   2 AT END OF TIME STEP   1 IN STRESS PERIOD    6
  ---------------------------------------------------------------------------

                1               2               3               4               5               6               7               8               9              10
 ................................................................................................................................................................
   1     -10.4879        -10.4879        -10.4879        -10.4879        -10.4879        -10.4879        -10.4879        -10.4879        -10.4879        -10.4879    
1
  HEAD IN LAYER   3 AT END OF TIME STEP   1 IN STRESS PERIOD    6
  ---------------------------------------------------------------------------

                1               2               3               4               5               6               7               8               9              10
 ................................................................................................................................................................
   1     -10.5000        -10.4999        -10.4999        -10.4999        -10.4999        -10.4999        -10.4999        -10.4999        -10.4999        -10.5000    

 HEAD WILL BE SAVED ON UNIT 1015 AT END OF TIME STEP    1, STRESS PERIOD    6


  UZF_0 BUDGET FOR ENTIRE MODEL AT END OF TIME STEP    1, STRESS PERIOD   6
  ------------------------------------------------------------------------------

     CUMULATIVE UZF_0      L**3       RATES FOR THIS TIME STEP      L**3/T
     ------------------                 ------------------------

           IN:                                      IN:
           ---                                      ---
                 GWF =           0.0000                   GWF =           0.0000
        INFILTRATION =          15.0400          INFILTRATION =       8.0000E-03
             REJ-INF =           0.0000               REJ-INF =           0.0000
                UZET =           0.0000                  UZET =           0.0000
             STORAGE =          14.3982               STORAGE =           0.1676

            TOTAL IN =          29.4382              TOTAL IN =           0.1756

          OUT:                                     OUT:
          ----                                     ----
                 GWF =           9.2233                   GWF =       9.2498E-02
        INFILTRATION =           0.0000          INFILTRATION =           0.0000
             REJ-INF =           0.0000               REJ-INF =           0.0000
                UZET =           1.9515                  UZET =       8.3150E-02
             STORAGE =          18.2635               STORAGE =           0.0000

           TOTAL OUT =          29.4382             TOTAL OUT =           0.1756

            IN - OUT =       2.6000E-07              IN - OUT =       2.3147E-09

 PERCENT DISCREPANCY =           0.00     PERCENT DISCREPANCY =           0.00



  VOLUME BUDGET FOR ENTIRE MODEL AT END OF TIME STEP    1, STRESS PERIOD   6
  ---------------------------------------------------------------------------------------------------

     CUMULATIVE VOLUME      L**3       RATES FOR THIS TIME STEP      L**3/T          PACKAGE NAME    
     ------------------                 ------------------------                     ----------------

           IN:                                      IN:
           ---                                      ---
              STO-SS =       2.4844E-04                STO-SS =       1.0938E-06     STORAGE                          
              STO-SY =           1.5342                STO-SY =       3.4164E-03     STORAGE                          
                 GHB =          38.6525                   GHB =           0.0000     GHB_0                            
           UZF-GWRCH =           9.2233             UZF-GWRCH =       9.2498E-02     UZF_0                            
             UZF-GWD =           0.0000               UZF-GWD =           0.0000     UZF_0                            
            UZF-GWET =           0.0000              UZF-GWET =           0.0000     UZF_0                            

            TOTAL IN =          49.4101              TOTAL IN =       9.5915E-02

          OUT:                                     OUT:
          ----                                     ----
              STO-SS =       1.8023E-02                STO-SS =           0.0000     STORAGE                          
              STO-SY =          45.0705                STO-SY =           0.0000     STORAGE                          
                 GHB =           4.3216                   GHB =       9.5915E-02     GHB_0                            
           UZF-GWRCH =           0.0000             UZF-GWRCH =           0.0000     UZF_0                            
             UZF-GWD =           0.0000               UZF-GWD =           0.0000     UZF_0                            
            UZF-GWET =           0.0000              UZF-GWET =           0.0000     UZF_0                            

           TOTAL OUT =          49.4101             TOTAL OUT =       9.5915E-02

            IN - OUT =       7.9528E-09              IN - OUT =      -4.7298E-09

 PERCENT DISCREPANCY =           0.00     PERCENT DISCREPANCY =          -0.00




         TIME SUMMARY AT END OF TIME STEP    1 IN STRESS PERIOD    6
                    SECONDS     MINUTES      HOURS       DAYS        YEARS
                    -----------------------------------------------------------
   TIME STEP LENGTH 8.64000E+05  14400.      240.00      10.000     2.73785E-02
 STRESS PERIOD TIME 8.64000E+05  14400.      240.00      10.000     2.73785E-02
         TOTAL TIME 5.18400E+06  86400.      1440.0      60.000     0.16427    


end timestep

