                                   MODFLOW 6
                U.S. GEOLOGICAL SURVEY MODULAR HYDROLOGIC MODEL
                          GROUNDWATER FLOW MODEL (GWF)
                  VERSION 6.5.0.dev0 (preliminary) 07/13/2023
                               ***DEVELOP MODE***

        MODFLOW 6 compiled Oct 18 2023 15:05:49 with GCC version 11.3.0

This software is preliminary or provisional and is subject to 
revision. It is being provided to meet the need for timely best 
science. The software has not received final approval by the U.S. 
Geological Survey (USGS). No warranty, expressed or implied, is made 
by the USGS or the U.S. Government as to the functionality of the 
software and related material nor shall the fact of release 
constitute any such warranty. The software is provided on the 
condition that neither the USGS nor the U.S. Government shall be held 
liable for any damages resulting from the authorized or unauthorized 
use of the software.


As a work of the United States Government, this USGS product is 
in the public domain within the United States. You can copy, 
modify, distribute, and perform the work, even for commercial 
purposes, all without asking permission. Additionally, USGS 
waives copyright and related rights in the work worldwide 
through CC0 1.0 Universal Public Domain Dedication 
(https://creativecommons.org/publicdomain/zero/1.0/).

The following GNU Lesser General Public License (LGPL) libraries
are used in this USGS product:

    SPARSKIT version 2.0
      ilut, luson, and qsplit 
      (https://www-users.cse.umn.edu/~saad/software/SPARSKIT/)

    RCM - Reverse Cuthill McKee Ordering
      (https://people.math.sc.edu/Burkardt/f_src/rcm/rcm.html)

    BLAS - Basic Linear Algebra Subprograms Level 1
      (https://people.math.sc.edu/Burkardt/f_src/blas1_d/blas1_d.html)

    SPARSEKIT - Sparse Matrix Utility Package
      amux, dperm, dvperm, rperm, and cperm
      (https://people.sc.fsu.edu/~jburkardt/f77_src/sparsekit/sparsekit.html)

The following BSD-3 License libraries are used in this USGS product:

    Modern Fortran DAG Library
      Copyright (c) 2018, Jacob Williams
      All rights reserved.
      (https://github.com/jacobwilliams/daglib)

MODFLOW 6 compiler options: -cpp -I src/libmf6core.a.p -I src -I ../src -I
src/libmf6_external.a.p -I /home/mreno/miniconda3/envs/modflow6/include -I
-fdiagnostics-color=always -imultiarch x86_64-linux-gnu -D
_FILE_OFFSET_BITS=64 -D __linux__ -D __WITH_NETCDF__ -mtune=generic
-march=x86-64 -g -O2 -Wall -Wpedantic -Wcharacter-truncation
-Wno-unused-dummy-argument -Wno-intrinsic-shadow -Wno-maybe-uninitialized
-Wno-uninitialized -std=f2008 -fall-intrinsics -fbacktrace -fcheck=all
-ffpe-trap=overflow,zero,invalid -ffpe-summary=overflow
-ffpe-trap=overflow,zero,invalid -fPIC -J src/libmf6core.a.p
-fpre-include=/usr/include/finclude/math-vector-fortran.h

System command used to initiate simulation:
/home/mreno/.clone/usgs/w/netcdf/2/modflow6/bin/mf6

MODFLOW was compiled using uniform precision.

Real Variables
  KIND: 8
  TINY (smallest non-zero value):    2.225074-308
  HUGE (largest value):    1.797693+308
  PRECISION: 15
  SIZE IN BITS: 64

Integer Variables
  KIND: 4
  HUGE (largest value): 2147483647
  SIZE IN BITS: 32

Long Integer Variables
  KIND: 8
  HUGE (largest value): 9223372036854775807
  SIZE IN BITS: 64

Logical Variables
  KIND: 4
  SIZE IN BITS: 32

 NAMEFILE OPTIONS:
 END NAMEFILE OPTIONS:

 DIS -- STRUCTURED GRID DISCRETIZATION PACKAGE, VERSION 2 : 3/27/2014 - INPUT READ FROM MEMPATH: __INPUT__/CSUB_SUB03B/DIS                         


 NPF -- NODE PROPERTY FLOW PACKAGE, VERSION 1, 3/30/2015 INPUT READ FROM MEMPATH: __INPUT__/CSUB_SUB03B/NPF                         

 Setting Discretization Options
 End Setting Discretization Options

 Setting Discretization Dimensions
    NLAY = 3
    NROW = 10
    NCOL = 10
 End Setting Discretization Dimensions

 Setting Discretization Griddata
    DELR set from input file
    DELC set from input file
    TOP set from input file
    BOTM set from input file
 End Setting Discretization Griddata

 Setting NPF Options
 End Setting NPF Options

 Setting NPF Griddata
    ICELLTYPE set from input file
    K set from input file
    K33 set from input file
    K22 not provided.  Setting K22 = K.
 End Setting NPF Griddata


 WEL   -- WEL PACKAGE, VERSION 8, 2/22/2014 INPUT READ FROM MEMPATH: __INPUT__/CSUB_SUB03B/WEL_0                       

 PROCESSING WEL BASE OPTIONS
    LISTS OF WEL CELLS WILL BE PRINTED.
    WEL FLOWS WILL BE PRINTED TO LISTING FILE.
 END OF WEL BASE OPTIONS

 PROCESSING WEL OPTIONS
 END OF WEL OPTIONS

 PROCESSING WEL BASE DIMENSIONS
    MAXBOUND =       4
 END OF WEL BASE DIMENSIONS

 RCH   -- RCH PACKAGE, VERSION 8, 2/22/2014 INPUT READ FROM MEMPATH: __INPUT__/CSUB_SUB03B/RCHA_0                      

 PROCESSING RCH BASE OPTIONS
 END OF RCH BASE OPTIONS

 PROCESSING RCHA OPTIONS
    RECHARGE INPUT WILL BE READ AS ARRAY(S).
 END OF RCHA OPTIONS

 CHD   -- CHD PACKAGE, VERSION 8, 2/22/2014 INPUT READ FROM MEMPATH: __INPUT__/CSUB_SUB03B/CHD_0                       

 PROCESSING CHD BASE OPTIONS
 END OF CHD BASE OPTIONS

 PROCESSING CHD BASE DIMENSIONS
    MAXBOUND =       4
 END OF CHD BASE DIMENSIONS

 IC -- INITIAL CONDITIONS PACKAGE, VERSION 8, 3/28/2015 INPUT READ FROM UNIT 1006
 # File generated by Flopy version 3.5.0.dev0 on 10/18/2023 at 21:00:16.
 PROCESSING GRIDDATA

     INITIAL HEAD =   0.000000    
 END PROCESSING GRIDDATA

 STO -- STORAGE PACKAGE, VERSION 1, 5/19/2014 INPUT READ FROM UNIT 1005


 # File generated by Flopy version 3.5.0.dev0 on 10/18/2023 at 21:00:16.
 PROCESSING STORAGE OPTIONS
    STORAGECOEFFICIENT OPTION:
 Read storage coefficient rather than specific storage
 END OF STORAGE OPTIONS
 PROCESSING GRIDDATA

                 ICONVERT = 0 FOR LAYER 1

                 ICONVERT = 0 FOR LAYER 2

                 ICONVERT = 0 FOR LAYER 3

         SPECIFIC STORAGE =   0.000000    

           SPECIFIC YIELD =  0.1000000     FOR LAYER 1

           SPECIFIC YIELD =   0.000000     FOR LAYER 2

           SPECIFIC YIELD =   0.000000     FOR LAYER 3
 END PROCESSING GRIDDATA

 CSUB -- COMPACTION PACKAGE, VERSION 1, 12/15/2019 INPUT READ FROM UNIT 1012


 # File generated by Flopy version 3.5.0.dev0 on 10/18/2023 at 21:00:16.
 PROCESSING CSUB OPTIONS
    CSUB BOUNDARIES HAVE NAMES IN LAST COLUMN.
    LISTS OF CSUB CELLS WILL BE PRINTED.
    FLOWS WILL BE SAVED TO BUDGET FILE SPECIFIED IN OUTPUT CONTROL

 OPENED csub_sub03b.ib.strain.csv
 FILE TYPE:CSV_OUTPUT   UNIT 1016   STATUS:REPLACE             
 FORMAT:FORMATTED              ACCESS:SEQUENTIAL          
 ACTION:READWRITE           

    CSUB  INTERBED STRAIN CSV  WILL BE SAVED TO FILE: csub_sub03b.ib.strain.csv                                                                                                                                                                                                                                                                                                                                                                                                                                                                                                                                                                                                                                                                                                                                                                                                                                                                                                                                                                                                                                                                                                                                                                                                                                                                                                                                                                                                                                                                                                                                                                                                                                                                                                                                                                                                                                                                                                                                                                                                                                                                                                                                                                                                                                                                                                                                                                                                                                                                                                                                                                                                                                                                                                                                                                                                                                                                                                                                                                                                                                                                                                                                                                                                                                                                                                                                                                                                                                                                                                                                                                                                                                                                                                                                                                                                                                                                                                                                                                                                                                                                                                                                                                                                                                                                                                                                                                                                                                                                                                                                                                                                                                                                                                                                                                                                                                                                                                                                                                                                                                                                                                                                                                               
    OPENED ON UNIT:    1016

 OPENED csub_sub03b.sk.strain.csv
 FILE TYPE:CSV_OUTPUT   UNIT 1017   STATUS:REPLACE             
 FORMAT:FORMATTED              ACCESS:SEQUENTIAL          
 ACTION:READWRITE           

    CSUB  COARSE STRAIN CSV  WILL BE SAVED TO FILE: csub_sub03b.sk.strain.csv                                                                                                                                                                                                                                                                                                                                                                                                                                                                                                                                                                                                                                                                                                                                                                                                                                                                                                                                                                                                                                                                                                                                                                                                                                                                                                                                                                                                                                                                                                                                                                                                                                                                                                                                                                                                                                                                                                                                                                                                                                                                                                                                                                                                                                                                                                                                                                                                                                                                                                                                                                                                                                                                                                                                                                                                                                                                                                                                                                                                                                                                                                                                                                                                                                                                                                                                                                                                                                                                                                                                                                                                                                                                                                                                                                                                                                                                                                                                                                                                                                                                                                                                                                                                                                                                                                                                                                                                                                                                                                                                                                                                                                                                                                                                                                                                                                                                                                                                                                                                                                                                                                                                                                               
    OPENED ON UNIT:    1017

 OPENED csub_sub03b.compaction.gridbin
 FILE TYPE:DATA(BINARY)   UNIT 1018   STATUS:REPLACE             
 FORMAT:UNFORMATTED            ACCESS:STREAM              
 ACTION:READWRITE           

    CSUB  COMPACTION  WILL BE SAVED TO FILE: csub_sub03b.compaction.gridbin                                                                                                                                                                                                                                                                                                                                                                                                                                                                                                                                                                                                                                                                                                                                                                                                                                                                                                                                                                                                                                                                                                                                                                                                                                                                                                                                                                                                                                                                                                                                                                                                                                                                                                                                                                                                                                                                                                                                                                                                                                                                                                                                                                                                                                                                                                                                                                                                                                                                                                                                                                                                                                                                                                                                                                                                                                                                                                                                                                                                                                                                                                                                                                                                                                                                                                                                                                                                                                                                                                                                                                                                                                                                                                                                                                                                                                                                                                                                                                                                                                                                                                                                                                                                                                                                                                                                                                                                                                                                                                                                                                                                                                                                                                                                                                                                                                                                                                                                                                                                                                                                                                                                                                          
    OPENED ON UNIT:    1018

 OPENED csub_sub03b.csub.obs
 FILE TYPE:OBS   UNIT 1019   STATUS:OLD                 
 FORMAT:FORMATTED              ACCESS:SEQUENTIAL          
 ACTION:READ                

 END OF CSUB OPTIONS


 CSUB PACKAGE SETTINGS
    NUMBER OF DELAY CELLS = 39
    HEAD-BASED FORMULATION
    ELASTIC AND INELASTIC SPECIFIC STORAGE COEFFICIENTS WILL BE 
      SPECIFIED
    THICKNESS AND VOID RATIO WILL NOT BE ADJUSTED DURING THE
      SIMULATION
    INTERBED THICKNESS WILL BE SPECIFIED AS A THICKNESS
    PRECONSOLIDATION HEAD WILL BE SPECIFIED AS ABSOLUTE VALUES
      INSTEAD OF RELATIVE TO INITIAL HEAD CONDITIONS
    DELAY INTERBED HEADS WILL BE SPECIFIED AS ABSOLUTE VALUES INSTEAD
      OF RELATIVE TO INITIAL GWF HEADS
    EFFECTIVE_STRESS_LAG HAS BEEN SPECIFIED BUT HAS NO EFFECT WHEN
      USING THE HEAD-BASED FORMULATION (HEAD_BASED HAS BEEN SPECIFIED
      IN THE OPTIONS BLOCK)
    GAMMAW        = 9806.6499999999996
    BETA          = 0.0000000000000000
    GAMMAW * BETA = 0.0000000000000000

 PROCESSING CSUB DIMENSIONS
    NINTERBEDS = 492
 END OF CSUB DIMENSIONS

The observation utility is active for "CSUB"
 # File generated by Flopy version 3.5.0.dev0 on 10/18/2023 at 21:00:16.

Processing observation options:

Text output number of digits of precision set to: 10
The PRINT_INPUT option has been specified.


 OBSERVATIONS READ FROM FILE "csub_sub03b.csub.obs"
 ----------------------------------------------------------------------------------------------------------------------------------------------------------------------------------------------------------------------------
 NAME                                     TYPE                                       TIME         LOCATION DATA                              OUTPUT FILENAME                                                                 
 ----------------------------------------------------------------------------------------------------------------------------------------------------------------------------------------------------------------------------
 TCOMP1                                   CONTINUOUS  INTERBED-COMPACTION            ALL TIMES    "  01_05_05"                               csub_obs.csv                                                                    
 TCOMP2                                   CONTINUOUS  INTERBED-COMPACTION            ALL TIMES    "  02_05_05"                               csub_obs.csv                                                                    
 TCOMP3                                   CONTINUOUS  INTERBED-COMPACTION            ALL TIMES    "  03_05_05"                               csub_obs.csv                                                                    
 ----------------------------------------------------------------------------------------------------------------------------------------------------------------------------------------------------------------------------



 CG_SKE_CR =  0.3000000E-05 FOR LAYER 1

 CG_SKE_CR =   0.000000     FOR LAYER 2

 CG_SKE_CR =  0.3000000E-05 FOR LAYER 3

 CG_THETA =  0.2000000    

 PROCESSING CSUB PACKAGEDATA
 END OF CSUB PACKAGEDATA

 CSUB PACKAGE INTERBED DATA
 ---------------------------------------------------------------------------------------------------------------------------------------------------------------------------
 INTERBED          CELLID          CDELAY      PCS       THICK       RNB       SSV_CC     SSV_CR     THETA        KV         H0     BOUNDNAME                               
 ---------------------------------------------------------------------------------------------------------------------------------------------------------------------------
 1                (1,1,1)         NODELAY   -7.00       15.0       1.00       6.000E-04  6.000E-06  0.451         -          -      01_01_01                                
 2                (1,1,2)         NODELAY   -7.00       15.0       1.00       6.000E-04  6.000E-06  0.451         -          -      01_01_02                                
 3                (1,1,3)         NODELAY   -7.00       15.0       1.00       6.000E-04  6.000E-06  0.451         -          -      01_01_03                                
 4                (1,1,4)         NODELAY   -7.00       15.0       1.00       6.000E-04  6.000E-06  0.451         -          -      01_01_04                                
 5                (1,1,5)         NODELAY   -7.00       15.0       1.00       6.000E-04  6.000E-06  0.451         -          -      01_01_05                                
 6                (1,1,6)         NODELAY   -7.00       15.0       1.00       6.000E-04  6.000E-06  0.451         -          -      01_01_06                                
 7                (1,1,7)         NODELAY   -7.00       15.0       1.00       6.000E-04  6.000E-06  0.451         -          -      01_01_07                                
 8                (1,1,8)         NODELAY   -7.00       15.0       1.00       6.000E-04  6.000E-06  0.451         -          -      01_01_08                                
 9                (1,1,9)         NODELAY   -7.00       15.0       1.00       6.000E-04  6.000E-06  0.451         -          -      01_01_09                                
 10               (1,1,10)        NODELAY   -7.00       15.0       1.00       6.000E-04  6.000E-06  0.451         -          -      01_01_10                                
 11               (1,2,1)         NODELAY   -7.00       15.0       1.00       6.000E-04  6.000E-06  0.451         -          -      01_02_01                                
 12               (1,2,2)         NODELAY   -7.00       15.0       1.00       6.000E-04  6.000E-06  0.451         -          -      01_02_02                                
 13               (1,2,3)         NODELAY   -7.00       15.0       1.00       6.000E-04  6.000E-06  0.451         -          -      01_02_03                                
 14               (1,2,4)         NODELAY   -7.00       15.0       1.00       6.000E-04  6.000E-06  0.451         -          -      01_02_04                                
 15               (1,2,5)         NODELAY   -7.00       15.0       1.00       6.000E-04  6.000E-06  0.451         -          -      01_02_05                                
 16               (1,2,6)         NODELAY   -7.00       15.0       1.00       6.000E-04  6.000E-06  0.451         -          -      01_02_06                                
 17               (1,2,7)         NODELAY   -7.00       15.0       1.00       6.000E-04  6.000E-06  0.451         -          -      01_02_07                                
 18               (1,2,8)         NODELAY   -7.00       15.0       1.00       6.000E-04  6.000E-06  0.451         -          -      01_02_08                                
 19               (1,2,9)         NODELAY   -7.00       15.0       1.00       6.000E-04  6.000E-06  0.451         -          -      01_02_09                                
 20               (1,2,10)        NODELAY   -7.00       15.0       1.00       6.000E-04  6.000E-06  0.451         -          -      01_02_10                                
 21               (1,3,1)         NODELAY   -7.00       15.0       1.00       6.000E-04  6.000E-06  0.451         -          -      01_03_01                                
 22               (1,3,2)         NODELAY   -7.00       15.0       1.00       6.000E-04  6.000E-06  0.451         -          -      01_03_02                                
 23               (1,3,3)         NODELAY   -7.00       15.0       1.00       6.000E-04  6.000E-06  0.451         -          -      01_03_03                                
 24               (1,3,4)         NODELAY   -7.00       15.0       1.00       6.000E-04  6.000E-06  0.451         -          -      01_03_04                                
 25               (1,3,5)         NODELAY   -7.00       15.0       1.00       6.000E-04  6.000E-06  0.451         -          -      01_03_05                                
 26               (1,3,6)         NODELAY   -7.00       15.0       1.00       6.000E-04  6.000E-06  0.451         -          -      01_03_06                                
 27               (1,3,7)         NODELAY   -7.00       15.0       1.00       6.000E-04  6.000E-06  0.451         -          -      01_03_07                                
 28               (1,3,8)         NODELAY   -7.00       15.0       1.00       6.000E-04  6.000E-06  0.451         -          -      01_03_08                                
 29               (1,3,9)         NODELAY   -7.00       15.0       1.00       6.000E-04  6.000E-06  0.451         -          -      01_03_09                                
 30               (1,3,10)        NODELAY   -7.00       15.0       1.00       6.000E-04  6.000E-06  0.451         -          -      01_03_10                                
 31               (1,4,1)         NODELAY   -7.00       15.0       1.00       6.000E-04  6.000E-06  0.451         -          -      01_04_01                                
 32               (1,4,2)         NODELAY   -7.00       15.0       1.00       6.000E-04  6.000E-06  0.451         -          -      01_04_02                                
 33               (1,4,3)         NODELAY   -7.00       15.0       1.00       6.000E-04  6.000E-06  0.451         -          -      01_04_03                                
 34               (1,4,4)         NODELAY   -7.00       15.0       1.00       6.000E-04  6.000E-06  0.451         -          -      01_04_04                                
 35               (1,4,5)         NODELAY   -7.00       15.0       1.00       6.000E-04  6.000E-06  0.451         -          -      01_04_05                                
 36               (1,4,6)         NODELAY   -7.00       15.0       1.00       6.000E-04  6.000E-06  0.451         -          -      01_04_06                                
 37               (1,4,7)         NODELAY   -7.00       15.0       1.00       6.000E-04  6.000E-06  0.451         -          -      01_04_07                                
 38               (1,4,8)         NODELAY   -7.00       15.0       1.00       6.000E-04  6.000E-06  0.451         -          -      01_04_08                                
 39               (1,4,9)         NODELAY   -7.00       15.0       1.00       6.000E-04  6.000E-06  0.451         -          -      01_04_09                                
 40               (1,4,10)        NODELAY   -7.00       15.0       1.00       6.000E-04  6.000E-06  0.451         -          -      01_04_10                                
 41               (1,5,1)         NODELAY   -7.00       15.0       1.00       6.000E-04  6.000E-06  0.451         -          -      01_05_01                                
 42               (1,5,2)         NODELAY   -7.00       15.0       1.00       6.000E-04  6.000E-06  0.451         -          -      01_05_02                                
 43               (1,5,3)         NODELAY   -7.00       15.0       1.00       6.000E-04  6.000E-06  0.451         -          -      01_05_03                                
 44               (1,5,4)         NODELAY   -7.00       15.0       1.00       6.000E-04  6.000E-06  0.451         -          -      01_05_04                                
 45               (1,5,5)         NODELAY   -7.00       15.0       1.00       6.000E-04  6.000E-06  0.451         -          -      01_05_05                                
 46               (1,5,6)         NODELAY   -7.00       15.0       1.00       6.000E-04  6.000E-06  0.451         -          -      01_05_06                                
 47               (1,5,7)         NODELAY   -7.00       15.0       1.00       6.000E-04  6.000E-06  0.451         -          -      01_05_07                                
 48               (1,5,8)         NODELAY   -7.00       15.0       1.00       6.000E-04  6.000E-06  0.451         -          -      01_05_08                                
 49               (1,5,9)         NODELAY   -7.00       15.0       1.00       6.000E-04  6.000E-06  0.451         -          -      01_05_09                                
 50               (1,5,10)        NODELAY   -7.00       15.0       1.00       6.000E-04  6.000E-06  0.451         -          -      01_05_10                                
 51               (1,6,1)         NODELAY   -7.00       15.0       1.00       6.000E-04  6.000E-06  0.451         -          -      01_06_01                                
 52               (1,6,2)         NODELAY   -7.00       15.0       1.00       6.000E-04  6.000E-06  0.451         -          -      01_06_02                                
 53               (1,6,3)         NODELAY   -7.00       15.0       1.00       6.000E-04  6.000E-06  0.451         -          -      01_06_03                                
 54               (1,6,4)         NODELAY   -7.00       15.0       1.00       6.000E-04  6.000E-06  0.451         -          -      01_06_04                                
 55               (1,6,5)         NODELAY   -7.00       15.0       1.00       6.000E-04  6.000E-06  0.451         -          -      01_06_05                                
 56               (1,6,6)         NODELAY   -7.00       15.0       1.00       6.000E-04  6.000E-06  0.451         -          -      01_06_06                                
 57               (1,6,7)         NODELAY   -7.00       15.0       1.00       6.000E-04  6.000E-06  0.451         -          -      01_06_07                                
 58               (1,6,8)         NODELAY   -7.00       15.0       1.00       6.000E-04  6.000E-06  0.451         -          -      01_06_08                                
 59               (1,6,9)         NODELAY   -7.00       15.0       1.00       6.000E-04  6.000E-06  0.451         -          -      01_06_09                                
 60               (1,6,10)        NODELAY   -7.00       15.0       1.00       6.000E-04  6.000E-06  0.451         -          -      01_06_10                                
 61               (1,7,1)         NODELAY   -7.00       15.0       1.00       6.000E-04  6.000E-06  0.451         -          -      01_07_01                                
 62               (1,7,2)         NODELAY   -7.00       15.0       1.00       6.000E-04  6.000E-06  0.451         -          -      01_07_02                                
 63               (1,7,3)         NODELAY   -7.00       15.0       1.00       6.000E-04  6.000E-06  0.451         -          -      01_07_03                                
 64               (1,7,4)         NODELAY   -7.00       15.0       1.00       6.000E-04  6.000E-06  0.451         -          -      01_07_04                                
 65               (1,7,5)         NODELAY   -7.00       15.0       1.00       6.000E-04  6.000E-06  0.451         -          -      01_07_05                                
 66               (1,7,6)         NODELAY   -7.00       15.0       1.00       6.000E-04  6.000E-06  0.451         -          -      01_07_06                                
 67               (1,7,7)         NODELAY   -7.00       15.0       1.00       6.000E-04  6.000E-06  0.451         -          -      01_07_07                                
 68               (1,7,8)         NODELAY   -7.00       15.0       1.00       6.000E-04  6.000E-06  0.451         -          -      01_07_08                                
 69               (1,7,9)         NODELAY   -7.00       15.0       1.00       6.000E-04  6.000E-06  0.451         -          -      01_07_09                                
 70               (1,7,10)        NODELAY   -7.00       15.0       1.00       6.000E-04  6.000E-06  0.451         -          -      01_07_10                                
 71               (1,8,1)         NODELAY   -7.00       15.0       1.00       6.000E-04  6.000E-06  0.451         -          -      01_08_01                                
 72               (1,8,2)         NODELAY   -7.00       15.0       1.00       6.000E-04  6.000E-06  0.451         -          -      01_08_02                                
 73               (1,8,3)         NODELAY   -7.00       15.0       1.00       6.000E-04  6.000E-06  0.451         -          -      01_08_03                                
 74               (1,8,4)         NODELAY   -7.00       15.0       1.00       6.000E-04  6.000E-06  0.451         -          -      01_08_04                                
 75               (1,8,5)         NODELAY   -7.00       15.0       1.00       6.000E-04  6.000E-06  0.451         -          -      01_08_05                                
 76               (1,8,6)         NODELAY   -7.00       15.0       1.00       6.000E-04  6.000E-06  0.451         -          -      01_08_06                                
 77               (1,8,7)         NODELAY   -7.00       15.0       1.00       6.000E-04  6.000E-06  0.451         -          -      01_08_07                                
 78               (1,8,8)         NODELAY   -7.00       15.0       1.00       6.000E-04  6.000E-06  0.451         -          -      01_08_08                                
 79               (1,8,9)         NODELAY   -7.00       15.0       1.00       6.000E-04  6.000E-06  0.451         -          -      01_08_09                                
 80               (1,8,10)        NODELAY   -7.00       15.0       1.00       6.000E-04  6.000E-06  0.451         -          -      01_08_10                                
 81               (1,9,1)         NODELAY   -7.00       15.0       1.00       6.000E-04  6.000E-06  0.451         -          -      01_09_01                                
 82               (1,9,2)         NODELAY   -7.00       15.0       1.00       6.000E-04  6.000E-06  0.451         -          -      01_09_02                                
 83               (1,9,3)         NODELAY   -7.00       15.0       1.00       6.000E-04  6.000E-06  0.451         -          -      01_09_03                                
 84               (1,9,4)         NODELAY   -7.00       15.0       1.00       6.000E-04  6.000E-06  0.451         -          -      01_09_04                                
 85               (1,9,5)         NODELAY   -7.00       15.0       1.00       6.000E-04  6.000E-06  0.451         -          -      01_09_05                                
 86               (1,9,6)         NODELAY   -7.00       15.0       1.00       6.000E-04  6.000E-06  0.451         -          -      01_09_06                                
 87               (1,9,7)         NODELAY   -7.00       15.0       1.00       6.000E-04  6.000E-06  0.451         -          -      01_09_07                                
 88               (1,9,8)         NODELAY   -7.00       15.0       1.00       6.000E-04  6.000E-06  0.451         -          -      01_09_08                                
 89               (1,9,9)         NODELAY   -7.00       15.0       1.00       6.000E-04  6.000E-06  0.451         -          -      01_09_09                                
 90               (1,9,10)        NODELAY   -7.00       15.0       1.00       6.000E-04  6.000E-06  0.451         -          -      01_09_10                                
 91               (1,10,1)        NODELAY   -7.00       15.0       1.00       6.000E-04  6.000E-06  0.451         -          -      01_10_01                                
 92               (1,10,2)        NODELAY   -7.00       15.0       1.00       6.000E-04  6.000E-06  0.451         -          -      01_10_02                                
 93               (1,10,3)        NODELAY   -7.00       15.0       1.00       6.000E-04  6.000E-06  0.451         -          -      01_10_03                                
 94               (1,10,8)        NODELAY   -7.00       15.0       1.00       6.000E-04  6.000E-06  0.451         -          -      01_10_08                                
 95               (1,10,9)        NODELAY   -7.00       15.0       1.00       6.000E-04  6.000E-06  0.451         -          -      01_10_09                                
 96              (1,10,10)        NODELAY   -7.00       15.0       1.00       6.000E-04  6.000E-06  0.451         -          -      01_10_10                                
 97               (2,1,1)         NODELAY   -7.00       50.0       1.00       3.000E-04  3.000E-06  0.451         -          -      02_01_01                                
 98               (2,1,2)         NODELAY   -7.00       50.0       1.00       3.000E-04  3.000E-06  0.451         -          -      02_01_02                                
 99               (2,1,3)         NODELAY   -7.00       50.0       1.00       3.000E-04  3.000E-06  0.451         -          -      02_01_03                                
 100              (2,1,4)         NODELAY   -7.00       50.0       1.00       3.000E-04  3.000E-06  0.451         -          -      02_01_04                                
 101              (2,1,5)         NODELAY   -7.00       50.0       1.00       3.000E-04  3.000E-06  0.451         -          -      02_01_05                                
 102              (2,1,6)         NODELAY   -7.00       50.0       1.00       3.000E-04  3.000E-06  0.451         -          -      02_01_06                                
 103              (2,1,7)         NODELAY   -7.00       50.0       1.00       3.000E-04  3.000E-06  0.451         -          -      02_01_07                                
 104              (2,1,8)         NODELAY   -7.00       50.0       1.00       3.000E-04  3.000E-06  0.451         -          -      02_01_08                                
 105              (2,1,9)         NODELAY   -7.00       50.0       1.00       3.000E-04  3.000E-06  0.451         -          -      02_01_09                                
 106              (2,1,10)        NODELAY   -7.00       50.0       1.00       3.000E-04  3.000E-06  0.451         -          -      02_01_10                                
 107              (2,2,1)         NODELAY   -7.00       50.0       1.00       3.000E-04  3.000E-06  0.451         -          -      02_02_01                                
 108              (2,2,2)         NODELAY   -7.00       50.0       1.00       3.000E-04  3.000E-06  0.451         -          -      02_02_02                                
 109              (2,2,3)         NODELAY   -7.00       50.0       1.00       3.000E-04  3.000E-06  0.451         -          -      02_02_03                                
 110              (2,2,4)         NODELAY   -7.00       50.0       1.00       3.000E-04  3.000E-06  0.451         -          -      02_02_04                                
 111              (2,2,5)         NODELAY   -7.00       50.0       1.00       3.000E-04  3.000E-06  0.451         -          -      02_02_05                                
 112              (2,2,6)         NODELAY   -7.00       50.0       1.00       3.000E-04  3.000E-06  0.451         -          -      02_02_06                                
 113              (2,2,7)         NODELAY   -7.00       50.0       1.00       3.000E-04  3.000E-06  0.451         -          -      02_02_07                                
 114              (2,2,8)         NODELAY   -7.00       50.0       1.00       3.000E-04  3.000E-06  0.451         -          -      02_02_08                                
 115              (2,2,9)         NODELAY   -7.00       50.0       1.00       3.000E-04  3.000E-06  0.451         -          -      02_02_09                                
 116              (2,2,10)        NODELAY   -7.00       50.0       1.00       3.000E-04  3.000E-06  0.451         -          -      02_02_10                                
 117              (2,3,1)         NODELAY   -7.00       50.0       1.00       3.000E-04  3.000E-06  0.451         -          -      02_03_01                                
 118              (2,3,2)         NODELAY   -7.00       50.0       1.00       3.000E-04  3.000E-06  0.451         -          -      02_03_02                                
 119              (2,3,3)         NODELAY   -7.00       50.0       1.00       3.000E-04  3.000E-06  0.451         -          -      02_03_03                                
 120              (2,3,4)         NODELAY   -7.00       50.0       1.00       3.000E-04  3.000E-06  0.451         -          -      02_03_04                                
 121              (2,3,5)         NODELAY   -7.00       50.0       1.00       3.000E-04  3.000E-06  0.451         -          -      02_03_05                                
 122              (2,3,6)         NODELAY   -7.00       50.0       1.00       3.000E-04  3.000E-06  0.451         -          -      02_03_06                                
 123              (2,3,7)         NODELAY   -7.00       50.0       1.00       3.000E-04  3.000E-06  0.451         -          -      02_03_07                                
 124              (2,3,8)         NODELAY   -7.00       50.0       1.00       3.000E-04  3.000E-06  0.451         -          -      02_03_08                                
 125              (2,3,9)         NODELAY   -7.00       50.0       1.00       3.000E-04  3.000E-06  0.451         -          -      02_03_09                                
 126              (2,3,10)        NODELAY   -7.00       50.0       1.00       3.000E-04  3.000E-06  0.451         -          -      02_03_10                                
 127              (2,4,1)         NODELAY   -7.00       50.0       1.00       3.000E-04  3.000E-06  0.451         -          -      02_04_01                                
 128              (2,4,2)         NODELAY   -7.00       50.0       1.00       3.000E-04  3.000E-06  0.451         -          -      02_04_02                                
 129              (2,4,3)         NODELAY   -7.00       50.0       1.00       3.000E-04  3.000E-06  0.451         -          -      02_04_03                                
 130              (2,4,4)         NODELAY   -7.00       50.0       1.00       3.000E-04  3.000E-06  0.451         -          -      02_04_04                                
 131              (2,4,5)         NODELAY   -7.00       50.0       1.00       3.000E-04  3.000E-06  0.451         -          -      02_04_05                                
 132              (2,4,6)         NODELAY   -7.00       50.0       1.00       3.000E-04  3.000E-06  0.451         -          -      02_04_06                                
 133              (2,4,7)         NODELAY   -7.00       50.0       1.00       3.000E-04  3.000E-06  0.451         -          -      02_04_07                                
 134              (2,4,8)         NODELAY   -7.00       50.0       1.00       3.000E-04  3.000E-06  0.451         -          -      02_04_08                                
 135              (2,4,9)         NODELAY   -7.00       50.0       1.00       3.000E-04  3.000E-06  0.451         -          -      02_04_09                                
 136              (2,4,10)        NODELAY   -7.00       50.0       1.00       3.000E-04  3.000E-06  0.451         -          -      02_04_10                                
 137              (2,5,1)         NODELAY   -7.00       50.0       1.00       3.000E-04  3.000E-06  0.451         -          -      02_05_01                                
 138              (2,5,2)         NODELAY   -7.00       50.0       1.00       3.000E-04  3.000E-06  0.451         -          -      02_05_02                                
 139              (2,5,3)         NODELAY   -7.00       50.0       1.00       3.000E-04  3.000E-06  0.451         -          -      02_05_03                                
 140              (2,5,4)         NODELAY   -7.00       50.0       1.00       3.000E-04  3.000E-06  0.451         -          -      02_05_04                                
 141              (2,5,5)         NODELAY   -7.00       50.0       1.00       3.000E-04  3.000E-06  0.451         -          -      02_05_05                                
 142              (2,5,6)         NODELAY   -7.00       50.0       1.00       3.000E-04  3.000E-06  0.451         -          -      02_05_06                                
 143              (2,5,7)         NODELAY   -7.00       50.0       1.00       3.000E-04  3.000E-06  0.451         -          -      02_05_07                                
 144              (2,5,8)         NODELAY   -7.00       50.0       1.00       3.000E-04  3.000E-06  0.451         -          -      02_05_08                                
 145              (2,5,9)         NODELAY   -7.00       50.0       1.00       3.000E-04  3.000E-06  0.451         -          -      02_05_09                                
 146              (2,5,10)        NODELAY   -7.00       50.0       1.00       3.000E-04  3.000E-06  0.451         -          -      02_05_10                                
 147              (2,6,1)         NODELAY   -7.00       50.0       1.00       3.000E-04  3.000E-06  0.451         -          -      02_06_01                                
 148              (2,6,2)         NODELAY   -7.00       50.0       1.00       3.000E-04  3.000E-06  0.451         -          -      02_06_02                                
 149              (2,6,3)         NODELAY   -7.00       50.0       1.00       3.000E-04  3.000E-06  0.451         -          -      02_06_03                                
 150              (2,6,4)         NODELAY   -7.00       50.0       1.00       3.000E-04  3.000E-06  0.451         -          -      02_06_04                                
 151              (2,6,5)         NODELAY   -7.00       50.0       1.00       3.000E-04  3.000E-06  0.451         -          -      02_06_05                                
 152              (2,6,6)         NODELAY   -7.00       50.0       1.00       3.000E-04  3.000E-06  0.451         -          -      02_06_06                                
 153              (2,6,7)         NODELAY   -7.00       50.0       1.00       3.000E-04  3.000E-06  0.451         -          -      02_06_07                                
 154              (2,6,8)         NODELAY   -7.00       50.0       1.00       3.000E-04  3.000E-06  0.451         -          -      02_06_08                                
 155              (2,6,9)         NODELAY   -7.00       50.0       1.00       3.000E-04  3.000E-06  0.451         -          -      02_06_09                                
 156              (2,6,10)        NODELAY   -7.00       50.0       1.00       3.000E-04  3.000E-06  0.451         -          -      02_06_10                                
 157              (2,7,1)         NODELAY   -7.00       50.0       1.00       3.000E-04  3.000E-06  0.451         -          -      02_07_01                                
 158              (2,7,2)         NODELAY   -7.00       50.0       1.00       3.000E-04  3.000E-06  0.451         -          -      02_07_02                                
 159              (2,7,3)         NODELAY   -7.00       50.0       1.00       3.000E-04  3.000E-06  0.451         -          -      02_07_03                                
 160              (2,7,4)         NODELAY   -7.00       50.0       1.00       3.000E-04  3.000E-06  0.451         -          -      02_07_04                                
 161              (2,7,5)         NODELAY   -7.00       50.0       1.00       3.000E-04  3.000E-06  0.451         -          -      02_07_05                                
 162              (2,7,6)         NODELAY   -7.00       50.0       1.00       3.000E-04  3.000E-06  0.451         -          -      02_07_06                                
 163              (2,7,7)         NODELAY   -7.00       50.0       1.00       3.000E-04  3.000E-06  0.451         -          -      02_07_07                                
 164              (2,7,8)         NODELAY   -7.00       50.0       1.00       3.000E-04  3.000E-06  0.451         -          -      02_07_08                                
 165              (2,7,9)         NODELAY   -7.00       50.0       1.00       3.000E-04  3.000E-06  0.451         -          -      02_07_09                                
 166              (2,7,10)        NODELAY   -7.00       50.0       1.00       3.000E-04  3.000E-06  0.451         -          -      02_07_10                                
 167              (2,8,1)         NODELAY   -7.00       50.0       1.00       3.000E-04  3.000E-06  0.451         -          -      02_08_01                                
 168              (2,8,2)         NODELAY   -7.00       50.0       1.00       3.000E-04  3.000E-06  0.451         -          -      02_08_02                                
 169              (2,8,3)         NODELAY   -7.00       50.0       1.00       3.000E-04  3.000E-06  0.451         -          -      02_08_03                                
 170              (2,8,4)         NODELAY   -7.00       50.0       1.00       3.000E-04  3.000E-06  0.451         -          -      02_08_04                                
 171              (2,8,5)         NODELAY   -7.00       50.0       1.00       3.000E-04  3.000E-06  0.451         -          -      02_08_05                                
 172              (2,8,6)         NODELAY   -7.00       50.0       1.00       3.000E-04  3.000E-06  0.451         -          -      02_08_06                                
 173              (2,8,7)         NODELAY   -7.00       50.0       1.00       3.000E-04  3.000E-06  0.451         -          -      02_08_07                                
 174              (2,8,8)         NODELAY   -7.00       50.0       1.00       3.000E-04  3.000E-06  0.451         -          -      02_08_08                                
 175              (2,8,9)         NODELAY   -7.00       50.0       1.00       3.000E-04  3.000E-06  0.451         -          -      02_08_09                                
 176              (2,8,10)        NODELAY   -7.00       50.0       1.00       3.000E-04  3.000E-06  0.451         -          -      02_08_10                                
 177              (2,9,1)         NODELAY   -7.00       50.0       1.00       3.000E-04  3.000E-06  0.451         -          -      02_09_01                                
 178              (2,9,2)         NODELAY   -7.00       50.0       1.00       3.000E-04  3.000E-06  0.451         -          -      02_09_02                                
 179              (2,9,3)         NODELAY   -7.00       50.0       1.00       3.000E-04  3.000E-06  0.451         -          -      02_09_03                                
 180              (2,9,4)         NODELAY   -7.00       50.0       1.00       3.000E-04  3.000E-06  0.451         -          -      02_09_04                                
 181              (2,9,5)         NODELAY   -7.00       50.0       1.00       3.000E-04  3.000E-06  0.451         -          -      02_09_05                                
 182              (2,9,6)         NODELAY   -7.00       50.0       1.00       3.000E-04  3.000E-06  0.451         -          -      02_09_06                                
 183              (2,9,7)         NODELAY   -7.00       50.0       1.00       3.000E-04  3.000E-06  0.451         -          -      02_09_07                                
 184              (2,9,8)         NODELAY   -7.00       50.0       1.00       3.000E-04  3.000E-06  0.451         -          -      02_09_08                                
 185              (2,9,9)         NODELAY   -7.00       50.0       1.00       3.000E-04  3.000E-06  0.451         -          -      02_09_09                                
 186              (2,9,10)        NODELAY   -7.00       50.0       1.00       3.000E-04  3.000E-06  0.451         -          -      02_09_10                                
 187              (2,10,1)        NODELAY   -7.00       50.0       1.00       3.000E-04  3.000E-06  0.451         -          -      02_10_01                                
 188              (2,10,2)        NODELAY   -7.00       50.0       1.00       3.000E-04  3.000E-06  0.451         -          -      02_10_02                                
 189              (2,10,3)        NODELAY   -7.00       50.0       1.00       3.000E-04  3.000E-06  0.451         -          -      02_10_03                                
 190              (2,10,4)        NODELAY   -7.00       50.0       1.00       3.000E-04  3.000E-06  0.451         -          -      02_10_04                                
 191              (2,10,5)        NODELAY   -7.00       50.0       1.00       3.000E-04  3.000E-06  0.451         -          -      02_10_05                                
 192              (2,10,6)        NODELAY   -7.00       50.0       1.00       3.000E-04  3.000E-06  0.451         -          -      02_10_06                                
 193              (2,10,7)        NODELAY   -7.00       50.0       1.00       3.000E-04  3.000E-06  0.451         -          -      02_10_07                                
 194              (2,10,8)        NODELAY   -7.00       50.0       1.00       3.000E-04  3.000E-06  0.451         -          -      02_10_08                                
 195              (2,10,9)        NODELAY   -7.00       50.0       1.00       3.000E-04  3.000E-06  0.451         -          -      02_10_09                                
 196             (2,10,10)        NODELAY   -7.00       50.0       1.00       3.000E-04  3.000E-06  0.451         -          -      02_10_10                                
 197              (3,1,1)         NODELAY   -7.00       30.0       1.00       6.000E-04  6.000E-06  0.451         -          -      03_01_01                                
 198              (3,1,2)         NODELAY   -7.00       30.0       1.00       6.000E-04  6.000E-06  0.451         -          -      03_01_02                                
 199              (3,1,3)         NODELAY   -7.00       30.0       1.00       6.000E-04  6.000E-06  0.451         -          -      03_01_03                                
 200              (3,1,4)         NODELAY   -7.00       30.0       1.00       6.000E-04  6.000E-06  0.451         -          -      03_01_04                                
 201              (3,1,5)         NODELAY   -7.00       30.0       1.00       6.000E-04  6.000E-06  0.451         -          -      03_01_05                                
 202              (3,1,6)         NODELAY   -7.00       30.0       1.00       6.000E-04  6.000E-06  0.451         -          -      03_01_06                                
 203              (3,1,7)         NODELAY   -7.00       30.0       1.00       6.000E-04  6.000E-06  0.451         -          -      03_01_07                                
 204              (3,1,8)         NODELAY   -7.00       30.0       1.00       6.000E-04  6.000E-06  0.451         -          -      03_01_08                                
 205              (3,1,9)         NODELAY   -7.00       30.0       1.00       6.000E-04  6.000E-06  0.451         -          -      03_01_09                                
 206              (3,1,10)        NODELAY   -7.00       30.0       1.00       6.000E-04  6.000E-06  0.451         -          -      03_01_10                                
 207              (3,2,1)         NODELAY   -7.00       30.0       1.00       6.000E-04  6.000E-06  0.451         -          -      03_02_01                                
 208              (3,2,2)         NODELAY   -7.00       30.0       1.00       6.000E-04  6.000E-06  0.451         -          -      03_02_02                                
 209              (3,2,3)         NODELAY   -7.00       30.0       1.00       6.000E-04  6.000E-06  0.451         -          -      03_02_03                                
 210              (3,2,4)         NODELAY   -7.00       30.0       1.00       6.000E-04  6.000E-06  0.451         -          -      03_02_04                                
 211              (3,2,5)         NODELAY   -7.00       30.0       1.00       6.000E-04  6.000E-06  0.451         -          -      03_02_05                                
 212              (3,2,6)         NODELAY   -7.00       30.0       1.00       6.000E-04  6.000E-06  0.451         -          -      03_02_06                                
 213              (3,2,7)         NODELAY   -7.00       30.0       1.00       6.000E-04  6.000E-06  0.451         -          -      03_02_07                                
 214              (3,2,8)         NODELAY   -7.00       30.0       1.00       6.000E-04  6.000E-06  0.451         -          -      03_02_08                                
 215              (3,2,9)         NODELAY   -7.00       30.0       1.00       6.000E-04  6.000E-06  0.451         -          -      03_02_09                                
 216              (3,2,10)        NODELAY   -7.00       30.0       1.00       6.000E-04  6.000E-06  0.451         -          -      03_02_10                                
 217              (3,3,1)         NODELAY   -7.00       30.0       1.00       6.000E-04  6.000E-06  0.451         -          -      03_03_01                                
 218              (3,3,2)         NODELAY   -7.00       30.0       1.00       6.000E-04  6.000E-06  0.451         -          -      03_03_02                                
 219              (3,3,3)         NODELAY   -7.00       30.0       1.00       6.000E-04  6.000E-06  0.451         -          -      03_03_03                                
 220              (3,3,4)         NODELAY   -7.00       30.0       1.00       6.000E-04  6.000E-06  0.451         -          -      03_03_04                                
 221              (3,3,5)         NODELAY   -7.00       30.0       1.00       6.000E-04  6.000E-06  0.451         -          -      03_03_05                                
 222              (3,3,6)         NODELAY   -7.00       30.0       1.00       6.000E-04  6.000E-06  0.451         -          -      03_03_06                                
 223              (3,3,7)         NODELAY   -7.00       30.0       1.00       6.000E-04  6.000E-06  0.451         -          -      03_03_07                                
 224              (3,3,8)         NODELAY   -7.00       30.0       1.00       6.000E-04  6.000E-06  0.451         -          -      03_03_08                                
 225              (3,3,9)         NODELAY   -7.00       30.0       1.00       6.000E-04  6.000E-06  0.451         -          -      03_03_09                                
 226              (3,3,10)        NODELAY   -7.00       30.0       1.00       6.000E-04  6.000E-06  0.451         -          -      03_03_10                                
 227              (3,4,1)         NODELAY   -7.00       30.0       1.00       6.000E-04  6.000E-06  0.451         -          -      03_04_01                                
 228              (3,4,2)         NODELAY   -7.00       30.0       1.00       6.000E-04  6.000E-06  0.451         -          -      03_04_02                                
 229              (3,4,3)         NODELAY   -7.00       30.0       1.00       6.000E-04  6.000E-06  0.451         -          -      03_04_03                                
 230              (3,4,4)         NODELAY   -7.00       30.0       1.00       6.000E-04  6.000E-06  0.451         -          -      03_04_04                                
 231              (3,4,5)         NODELAY   -7.00       30.0       1.00       6.000E-04  6.000E-06  0.451         -          -      03_04_05                                
 232              (3,4,6)         NODELAY   -7.00       30.0       1.00       6.000E-04  6.000E-06  0.451         -          -      03_04_06                                
 233              (3,4,7)         NODELAY   -7.00       30.0       1.00       6.000E-04  6.000E-06  0.451         -          -      03_04_07                                
 234              (3,4,8)         NODELAY   -7.00       30.0       1.00       6.000E-04  6.000E-06  0.451         -          -      03_04_08                                
 235              (3,4,9)         NODELAY   -7.00       30.0       1.00       6.000E-04  6.000E-06  0.451         -          -      03_04_09                                
 236              (3,4,10)        NODELAY   -7.00       30.0       1.00       6.000E-04  6.000E-06  0.451         -          -      03_04_10                                
 237              (3,5,1)         NODELAY   -7.00       30.0       1.00       6.000E-04  6.000E-06  0.451         -          -      03_05_01                                
 238              (3,5,2)         NODELAY   -7.00       30.0       1.00       6.000E-04  6.000E-06  0.451         -          -      03_05_02                                
 239              (3,5,3)         NODELAY   -7.00       30.0       1.00       6.000E-04  6.000E-06  0.451         -          -      03_05_03                                
 240              (3,5,4)         NODELAY   -7.00       30.0       1.00       6.000E-04  6.000E-06  0.451         -          -      03_05_04                                
 241              (3,5,5)         NODELAY   -7.00       30.0       1.00       6.000E-04  6.000E-06  0.451         -          -      03_05_05                                
 242              (3,5,6)         NODELAY   -7.00       30.0       1.00       6.000E-04  6.000E-06  0.451         -          -      03_05_06                                
 243              (3,5,7)         NODELAY   -7.00       30.0       1.00       6.000E-04  6.000E-06  0.451         -          -      03_05_07                                
 244              (3,5,8)         NODELAY   -7.00       30.0       1.00       6.000E-04  6.000E-06  0.451         -          -      03_05_08                                
 245              (3,5,9)         NODELAY   -7.00       30.0       1.00       6.000E-04  6.000E-06  0.451         -          -      03_05_09                                
 246              (3,5,10)        NODELAY   -7.00       30.0       1.00       6.000E-04  6.000E-06  0.451         -          -      03_05_10                                
 247              (3,6,1)         NODELAY   -7.00       30.0       1.00       6.000E-04  6.000E-06  0.451         -          -      03_06_01                                
 248              (3,6,2)         NODELAY   -7.00       30.0       1.00       6.000E-04  6.000E-06  0.451         -          -      03_06_02                                
 249              (3,6,3)         NODELAY   -7.00       30.0       1.00       6.000E-04  6.000E-06  0.451         -          -      03_06_03                                
 250              (3,6,4)         NODELAY   -7.00       30.0       1.00       6.000E-04  6.000E-06  0.451         -          -      03_06_04                                
 251              (3,6,5)         NODELAY   -7.00       30.0       1.00       6.000E-04  6.000E-06  0.451         -          -      03_06_05                                
 252              (3,6,6)         NODELAY   -7.00       30.0       1.00       6.000E-04  6.000E-06  0.451         -          -      03_06_06                                
 253              (3,6,7)         NODELAY   -7.00       30.0       1.00       6.000E-04  6.000E-06  0.451         -          -      03_06_07                                
 254              (3,6,8)         NODELAY   -7.00       30.0       1.00       6.000E-04  6.000E-06  0.451         -          -      03_06_08                                
 255              (3,6,9)         NODELAY   -7.00       30.0       1.00       6.000E-04  6.000E-06  0.451         -          -      03_06_09                                
 256              (3,6,10)        NODELAY   -7.00       30.0       1.00       6.000E-04  6.000E-06  0.451         -          -      03_06_10                                
 257              (3,7,1)         NODELAY   -7.00       30.0       1.00       6.000E-04  6.000E-06  0.451         -          -      03_07_01                                
 258              (3,7,2)         NODELAY   -7.00       30.0       1.00       6.000E-04  6.000E-06  0.451         -          -      03_07_02                                
 259              (3,7,3)         NODELAY   -7.00       30.0       1.00       6.000E-04  6.000E-06  0.451         -          -      03_07_03                                
 260              (3,7,4)         NODELAY   -7.00       30.0       1.00       6.000E-04  6.000E-06  0.451         -          -      03_07_04                                
 261              (3,7,5)         NODELAY   -7.00       30.0       1.00       6.000E-04  6.000E-06  0.451         -          -      03_07_05                                
 262              (3,7,6)         NODELAY   -7.00       30.0       1.00       6.000E-04  6.000E-06  0.451         -          -      03_07_06                                
 263              (3,7,7)         NODELAY   -7.00       30.0       1.00       6.000E-04  6.000E-06  0.451         -          -      03_07_07                                
 264              (3,7,8)         NODELAY   -7.00       30.0       1.00       6.000E-04  6.000E-06  0.451         -          -      03_07_08                                
 265              (3,7,9)         NODELAY   -7.00       30.0       1.00       6.000E-04  6.000E-06  0.451         -          -      03_07_09                                
 266              (3,7,10)        NODELAY   -7.00       30.0       1.00       6.000E-04  6.000E-06  0.451         -          -      03_07_10                                
 267              (3,8,1)         NODELAY   -7.00       30.0       1.00       6.000E-04  6.000E-06  0.451         -          -      03_08_01                                
 268              (3,8,2)         NODELAY   -7.00       30.0       1.00       6.000E-04  6.000E-06  0.451         -          -      03_08_02                                
 269              (3,8,3)         NODELAY   -7.00       30.0       1.00       6.000E-04  6.000E-06  0.451         -          -      03_08_03                                
 270              (3,8,4)         NODELAY   -7.00       30.0       1.00       6.000E-04  6.000E-06  0.451         -          -      03_08_04                                
 271              (3,8,5)         NODELAY   -7.00       30.0       1.00       6.000E-04  6.000E-06  0.451         -          -      03_08_05                                
 272              (3,8,6)         NODELAY   -7.00       30.0       1.00       6.000E-04  6.000E-06  0.451         -          -      03_08_06                                
 273              (3,8,7)         NODELAY   -7.00       30.0       1.00       6.000E-04  6.000E-06  0.451         -          -      03_08_07                                
 274              (3,8,8)         NODELAY   -7.00       30.0       1.00       6.000E-04  6.000E-06  0.451         -          -      03_08_08                                
 275              (3,8,9)         NODELAY   -7.00       30.0       1.00       6.000E-04  6.000E-06  0.451         -          -      03_08_09                                
 276              (3,8,10)        NODELAY   -7.00       30.0       1.00       6.000E-04  6.000E-06  0.451         -          -      03_08_10                                
 277              (3,9,1)         NODELAY   -7.00       30.0       1.00       6.000E-04  6.000E-06  0.451         -          -      03_09_01                                
 278              (3,9,2)         NODELAY   -7.00       30.0       1.00       6.000E-04  6.000E-06  0.451         -          -      03_09_02                                
 279              (3,9,3)         NODELAY   -7.00       30.0       1.00       6.000E-04  6.000E-06  0.451         -          -      03_09_03                                
 280              (3,9,4)         NODELAY   -7.00       30.0       1.00       6.000E-04  6.000E-06  0.451         -          -      03_09_04                                
 281              (3,9,5)         NODELAY   -7.00       30.0       1.00       6.000E-04  6.000E-06  0.451         -          -      03_09_05                                
 282              (3,9,6)         NODELAY   -7.00       30.0       1.00       6.000E-04  6.000E-06  0.451         -          -      03_09_06                                
 283              (3,9,7)         NODELAY   -7.00       30.0       1.00       6.000E-04  6.000E-06  0.451         -          -      03_09_07                                
 284              (3,9,8)         NODELAY   -7.00       30.0       1.00       6.000E-04  6.000E-06  0.451         -          -      03_09_08                                
 285              (3,9,9)         NODELAY   -7.00       30.0       1.00       6.000E-04  6.000E-06  0.451         -          -      03_09_09                                
 286              (3,9,10)        NODELAY   -7.00       30.0       1.00       6.000E-04  6.000E-06  0.451         -          -      03_09_10                                
 287              (3,10,1)        NODELAY   -7.00       30.0       1.00       6.000E-04  6.000E-06  0.451         -          -      03_10_01                                
 288              (3,10,2)        NODELAY   -7.00       30.0       1.00       6.000E-04  6.000E-06  0.451         -          -      03_10_02                                
 289              (3,10,3)        NODELAY   -7.00       30.0       1.00       6.000E-04  6.000E-06  0.451         -          -      03_10_03                                
 290              (3,10,4)        NODELAY   -7.00       30.0       1.00       6.000E-04  6.000E-06  0.451         -          -      03_10_04                                
 291              (3,10,5)        NODELAY   -7.00       30.0       1.00       6.000E-04  6.000E-06  0.451         -          -      03_10_05                                
 292              (3,10,6)        NODELAY   -7.00       30.0       1.00       6.000E-04  6.000E-06  0.451         -          -      03_10_06                                
 293              (3,10,7)        NODELAY   -7.00       30.0       1.00       6.000E-04  6.000E-06  0.451         -          -      03_10_07                                
 294              (3,10,8)        NODELAY   -7.00       30.0       1.00       6.000E-04  6.000E-06  0.451         -          -      03_10_08                                
 295              (3,10,9)        NODELAY   -7.00       30.0       1.00       6.000E-04  6.000E-06  0.451         -          -      03_10_09                                
 296             (3,10,10)        NODELAY   -7.00       30.0       1.00       6.000E-04  6.000E-06  0.451         -          -      03_10_10                                
 297              (1,1,1)          DELAY    -7.00       5.89       7.63       6.000E-04  6.000E-06  0.451      1.000E-06  22.7      01_01_01                                
 298              (1,1,2)          DELAY    -7.00       5.89       7.63       6.000E-04  6.000E-06  0.451      1.000E-06  22.3      01_01_02                                
 299              (1,1,3)          DELAY    -7.00       5.89       7.63       6.000E-04  6.000E-06  0.451      1.000E-06  21.7      01_01_03                                
 300              (1,1,4)          DELAY    -7.00       5.89       7.63       6.000E-04  6.000E-06  0.451      1.000E-06  21.2      01_01_04                                
 301              (1,1,5)          DELAY    -7.00       5.89       7.63       6.000E-04  6.000E-06  0.451      1.000E-06  21.0      01_01_05                                
 302              (1,1,6)          DELAY    -7.00       5.89       7.63       6.000E-04  6.000E-06  0.451      1.000E-06  21.0      01_01_06                                
 303              (1,1,7)          DELAY    -7.00       5.89       7.63       6.000E-04  6.000E-06  0.451      1.000E-06  21.2      01_01_07                                
 304              (1,1,8)          DELAY    -7.00       5.89       7.63       6.000E-04  6.000E-06  0.451      1.000E-06  21.7      01_01_08                                
 305              (1,1,9)          DELAY    -7.00       5.89       7.63       6.000E-04  6.000E-06  0.451      1.000E-06  22.3      01_01_09                                
 306              (1,1,10)         DELAY    -7.00       5.89       7.63       6.000E-04  6.000E-06  0.451      1.000E-06  22.7      01_01_10                                
 307              (1,2,1)          DELAY    -7.00       5.89       7.63       6.000E-04  6.000E-06  0.451      1.000E-06  21.6      01_02_01                                
 308              (1,2,2)          DELAY    -7.00       5.89       7.63       6.000E-04  6.000E-06  0.451      1.000E-06  21.1      01_02_02                                
 309              (1,2,3)          DELAY    -7.00       5.89       7.63       6.000E-04  6.000E-06  0.451      1.000E-06  20.7      01_02_03                                
 310              (1,2,4)          DELAY    -7.00       5.89       7.63       6.000E-04  6.000E-06  0.451      1.000E-06  20.4      01_02_04                                
 311              (1,2,5)          DELAY    -7.00       5.89       7.63       6.000E-04  6.000E-06  0.451      1.000E-06  20.3      01_02_05                                
 312              (1,2,6)          DELAY    -7.00       5.89       7.63       6.000E-04  6.000E-06  0.451      1.000E-06  20.3      01_02_06                                
 313              (1,2,7)          DELAY    -7.00       5.89       7.63       6.000E-04  6.000E-06  0.451      1.000E-06  20.4      01_02_07                                
 314              (1,2,8)          DELAY    -7.00       5.89       7.63       6.000E-04  6.000E-06  0.451      1.000E-06  20.7      01_02_08                                
 315              (1,2,9)          DELAY    -7.00       5.89       7.63       6.000E-04  6.000E-06  0.451      1.000E-06  21.1      01_02_09                                
 316              (1,2,10)         DELAY    -7.00       5.89       7.63       6.000E-04  6.000E-06  0.451      1.000E-06  21.6      01_02_10                                
 317              (1,3,1)          DELAY    -7.00       5.89       7.63       6.000E-04  6.000E-06  0.451      1.000E-06  20.1      01_03_01                                
 318              (1,3,2)          DELAY    -7.00       5.89       7.63       6.000E-04  6.000E-06  0.451      1.000E-06  19.6      01_03_02                                
 319              (1,3,3)          DELAY    -7.00       5.89       7.63       6.000E-04  6.000E-06  0.451      1.000E-06  19.3      01_03_03                                
 320              (1,3,4)          DELAY    -7.00       5.89       7.63       6.000E-04  6.000E-06  0.451      1.000E-06  19.0      01_03_04                                
 321              (1,3,5)          DELAY    -7.00       5.89       7.63       6.000E-04  6.000E-06  0.451      1.000E-06  18.9      01_03_05                                
 322              (1,3,6)          DELAY    -7.00       5.89       7.63       6.000E-04  6.000E-06  0.451      1.000E-06  18.9      01_03_06                                
 323              (1,3,7)          DELAY    -7.00       5.89       7.63       6.000E-04  6.000E-06  0.451      1.000E-06  19.0      01_03_07                                
 324              (1,3,8)          DELAY    -7.00       5.89       7.63       6.000E-04  6.000E-06  0.451      1.000E-06  19.3      01_03_08                                
 325              (1,3,9)          DELAY    -7.00       5.89       7.63       6.000E-04  6.000E-06  0.451      1.000E-06  19.6      01_03_09                                
 326              (1,3,10)         DELAY    -7.00       5.89       7.63       6.000E-04  6.000E-06  0.451      1.000E-06  20.1      01_03_10                                
 327              (1,4,1)          DELAY    -7.00       5.89       7.63       6.000E-04  6.000E-06  0.451      1.000E-06  18.0      01_04_01                                
 328              (1,4,2)          DELAY    -7.00       5.89       7.63       6.000E-04  6.000E-06  0.451      1.000E-06  17.6      01_04_02                                
 329              (1,4,3)          DELAY    -7.00       5.89       7.63       6.000E-04  6.000E-06  0.451      1.000E-06  17.3      01_04_03                                
 330              (1,4,4)          DELAY    -7.00       5.89       7.63       6.000E-04  6.000E-06  0.451      1.000E-06  17.1      01_04_04                                
 331              (1,4,5)          DELAY    -7.00       5.89       7.63       6.000E-04  6.000E-06  0.451      1.000E-06  17.1      01_04_05                                
 332              (1,4,6)          DELAY    -7.00       5.89       7.63       6.000E-04  6.000E-06  0.451      1.000E-06  17.1      01_04_06                                
 333              (1,4,7)          DELAY    -7.00       5.89       7.63       6.000E-04  6.000E-06  0.451      1.000E-06  17.1      01_04_07                                
 334              (1,4,8)          DELAY    -7.00       5.89       7.63       6.000E-04  6.000E-06  0.451      1.000E-06  17.3      01_04_08                                
 335              (1,4,9)          DELAY    -7.00       5.89       7.63       6.000E-04  6.000E-06  0.451      1.000E-06  17.6      01_04_09                                
 336              (1,4,10)         DELAY    -7.00       5.89       7.63       6.000E-04  6.000E-06  0.451      1.000E-06  18.0      01_04_10                                
 337              (1,5,1)          DELAY    -7.00       5.89       7.63       6.000E-04  6.000E-06  0.451      1.000E-06  15.1      01_05_01                                
 338              (1,5,2)          DELAY    -7.00       5.89       7.63       6.000E-04  6.000E-06  0.451      1.000E-06  15.0      01_05_02                                
 339              (1,5,3)          DELAY    -7.00       5.89       7.63       6.000E-04  6.000E-06  0.451      1.000E-06  14.9      01_05_03                                
 340              (1,5,4)          DELAY    -7.00       5.89       7.63       6.000E-04  6.000E-06  0.451      1.000E-06  14.8      01_05_04                                
 341              (1,5,5)          DELAY    -7.00       5.89       7.63       6.000E-04  6.000E-06  0.451      1.000E-06  14.8      01_05_05                                
 342              (1,5,6)          DELAY    -7.00       5.89       7.63       6.000E-04  6.000E-06  0.451      1.000E-06  14.8      01_05_06                                
 343              (1,5,7)          DELAY    -7.00       5.89       7.63       6.000E-04  6.000E-06  0.451      1.000E-06  14.8      01_05_07                                
 344              (1,5,8)          DELAY    -7.00       5.89       7.63       6.000E-04  6.000E-06  0.451      1.000E-06  14.9      01_05_08                                
 345              (1,5,9)          DELAY    -7.00       5.89       7.63       6.000E-04  6.000E-06  0.451      1.000E-06  15.0      01_05_09                                
 346              (1,5,10)         DELAY    -7.00       5.89       7.63       6.000E-04  6.000E-06  0.451      1.000E-06  15.1      01_05_10                                
 347              (1,6,1)          DELAY    -7.00       5.89       7.63       6.000E-04  6.000E-06  0.451      1.000E-06  12.5      01_06_01                                
 348              (1,6,2)          DELAY    -7.00       5.89       7.63       6.000E-04  6.000E-06  0.451      1.000E-06  12.4      01_06_02                                
 349              (1,6,3)          DELAY    -7.00       5.89       7.63       6.000E-04  6.000E-06  0.451      1.000E-06  12.4      01_06_03                                
 350              (1,6,4)          DELAY    -7.00       5.89       7.63       6.000E-04  6.000E-06  0.451      1.000E-06  12.4      01_06_04                                
 351              (1,6,5)          DELAY    -7.00       5.89       7.63       6.000E-04  6.000E-06  0.451      1.000E-06  12.3      01_06_05                                
 352              (1,6,6)          DELAY    -7.00       5.89       7.63       6.000E-04  6.000E-06  0.451      1.000E-06  12.3      01_06_06                                
 353              (1,6,7)          DELAY    -7.00       5.89       7.63       6.000E-04  6.000E-06  0.451      1.000E-06  12.4      01_06_07                                
 354              (1,6,8)          DELAY    -7.00       5.89       7.63       6.000E-04  6.000E-06  0.451      1.000E-06  12.4      01_06_08                                
 355              (1,6,9)          DELAY    -7.00       5.89       7.63       6.000E-04  6.000E-06  0.451      1.000E-06  12.4      01_06_09                                
 356              (1,6,10)         DELAY    -7.00       5.89       7.63       6.000E-04  6.000E-06  0.451      1.000E-06  12.5      01_06_10                                
 357              (1,7,1)          DELAY    -7.00       5.89       7.63       6.000E-04  6.000E-06  0.451      1.000E-06  9.87      01_07_01                                
 358              (1,7,2)          DELAY    -7.00       5.89       7.63       6.000E-04  6.000E-06  0.451      1.000E-06  9.85      01_07_02                                
 359              (1,7,3)          DELAY    -7.00       5.89       7.63       6.000E-04  6.000E-06  0.451      1.000E-06  9.80      01_07_03                                
 360              (1,7,4)          DELAY    -7.00       5.89       7.63       6.000E-04  6.000E-06  0.451      1.000E-06  9.77      01_07_04                                
 361              (1,7,5)          DELAY    -7.00       5.89       7.63       6.000E-04  6.000E-06  0.451      1.000E-06  9.74      01_07_05                                
 362              (1,7,6)          DELAY    -7.00       5.89       7.63       6.000E-04  6.000E-06  0.451      1.000E-06  9.74      01_07_06                                
 363              (1,7,7)          DELAY    -7.00       5.89       7.63       6.000E-04  6.000E-06  0.451      1.000E-06  9.77      01_07_07                                
 364              (1,7,8)          DELAY    -7.00       5.89       7.63       6.000E-04  6.000E-06  0.451      1.000E-06  9.80      01_07_08                                
 365              (1,7,9)          DELAY    -7.00       5.89       7.63       6.000E-04  6.000E-06  0.451      1.000E-06  9.85      01_07_09                                
 366              (1,7,10)         DELAY    -7.00       5.89       7.63       6.000E-04  6.000E-06  0.451      1.000E-06  9.87      01_07_10                                
 367              (1,8,1)          DELAY    -7.00       5.89       7.63       6.000E-04  6.000E-06  0.451      1.000E-06  7.30      01_08_01                                
 368              (1,8,2)          DELAY    -7.00       5.89       7.63       6.000E-04  6.000E-06  0.451      1.000E-06  7.24      01_08_02                                
 369              (1,8,3)          DELAY    -7.00       5.89       7.63       6.000E-04  6.000E-06  0.451      1.000E-06  7.13      01_08_03                                
 370              (1,8,4)          DELAY    -7.00       5.89       7.63       6.000E-04  6.000E-06  0.451      1.000E-06  7.03      01_08_04                                
 371              (1,8,5)          DELAY    -7.00       5.89       7.63       6.000E-04  6.000E-06  0.451      1.000E-06  6.97      01_08_05                                
 372              (1,8,6)          DELAY    -7.00       5.89       7.63       6.000E-04  6.000E-06  0.451      1.000E-06  6.97      01_08_06                                
 373              (1,8,7)          DELAY    -7.00       5.89       7.63       6.000E-04  6.000E-06  0.451      1.000E-06  7.03      01_08_07                                
 374              (1,8,8)          DELAY    -7.00       5.89       7.63       6.000E-04  6.000E-06  0.451      1.000E-06  7.13      01_08_08                                
 375              (1,8,9)          DELAY    -7.00       5.89       7.63       6.000E-04  6.000E-06  0.451      1.000E-06  7.24      01_08_09                                
 376              (1,8,10)         DELAY    -7.00       5.89       7.63       6.000E-04  6.000E-06  0.451      1.000E-06  7.30      01_08_10                                
 377              (1,9,1)          DELAY    -7.00       5.89       7.63       6.000E-04  6.000E-06  0.451      1.000E-06  4.89      01_09_01                                
 378              (1,9,2)          DELAY    -7.00       5.89       7.63       6.000E-04  6.000E-06  0.451      1.000E-06  4.71      01_09_02                                
 379              (1,9,3)          DELAY    -7.00       5.89       7.63       6.000E-04  6.000E-06  0.451      1.000E-06  4.38      01_09_03                                
 380              (1,9,4)          DELAY    -7.00       5.89       7.63       6.000E-04  6.000E-06  0.451      1.000E-06  4.02      01_09_04                                
 381              (1,9,5)          DELAY    -7.00       5.89       7.63       6.000E-04  6.000E-06  0.451      1.000E-06  3.86      01_09_05                                
 382              (1,9,6)          DELAY    -7.00       5.89       7.63       6.000E-04  6.000E-06  0.451      1.000E-06  3.86      01_09_06                                
 383              (1,9,7)          DELAY    -7.00       5.89       7.63       6.000E-04  6.000E-06  0.451      1.000E-06  4.02      01_09_07                                
 384              (1,9,8)          DELAY    -7.00       5.89       7.63       6.000E-04  6.000E-06  0.451      1.000E-06  4.38      01_09_08                                
 385              (1,9,9)          DELAY    -7.00       5.89       7.63       6.000E-04  6.000E-06  0.451      1.000E-06  4.71      01_09_09                                
 386              (1,9,10)         DELAY    -7.00       5.89       7.63       6.000E-04  6.000E-06  0.451      1.000E-06  4.89      01_09_10                                
 387              (1,10,1)         DELAY    -7.00       5.89       7.63       6.000E-04  6.000E-06  0.451      1.000E-06  3.13      01_10_01                                
 388              (1,10,2)         DELAY    -7.00       5.89       7.63       6.000E-04  6.000E-06  0.451      1.000E-06  2.68      01_10_02                                
 389              (1,10,3)         DELAY    -7.00       5.89       7.63       6.000E-04  6.000E-06  0.451      1.000E-06  1.70      01_10_03                                
 390              (1,10,8)         DELAY    -7.00       5.89       7.63       6.000E-04  6.000E-06  0.451      1.000E-06  1.70      01_10_08                                
 391              (1,10,9)         DELAY    -7.00       5.89       7.63       6.000E-04  6.000E-06  0.451      1.000E-06  2.68      01_10_09                                
 392             (1,10,10)         DELAY    -7.00       5.89       7.63       6.000E-04  6.000E-06  0.451      1.000E-06  3.13      01_10_10                                
 393              (3,1,1)          DELAY    -7.00       5.08       17.7       6.000E-04  6.000E-06  0.451      1.000E-06  13.3      03_01_01                                
 394              (3,1,2)          DELAY    -7.00       5.08       17.7       6.000E-04  6.000E-06  0.451      1.000E-06  13.3      03_01_02                                
 395              (3,1,3)          DELAY    -7.00       5.08       17.7       6.000E-04  6.000E-06  0.451      1.000E-06  13.3      03_01_03                                
 396              (3,1,4)          DELAY    -7.00       5.08       17.7       6.000E-04  6.000E-06  0.451      1.000E-06  13.3      03_01_04                                
 397              (3,1,5)          DELAY    -7.00       5.08       17.7       6.000E-04  6.000E-06  0.451      1.000E-06  13.3      03_01_05                                
 398              (3,1,6)          DELAY    -7.00       5.08       17.7       6.000E-04  6.000E-06  0.451      1.000E-06  13.3      03_01_06                                
 399              (3,1,7)          DELAY    -7.00       5.08       17.7       6.000E-04  6.000E-06  0.451      1.000E-06  13.3      03_01_07                                
 400              (3,1,8)          DELAY    -7.00       5.08       17.7       6.000E-04  6.000E-06  0.451      1.000E-06  13.3      03_01_08                                
 401              (3,1,9)          DELAY    -7.00       5.08       17.7       6.000E-04  6.000E-06  0.451      1.000E-06  13.3      03_01_09                                
 402              (3,1,10)         DELAY    -7.00       5.08       17.7       6.000E-04  6.000E-06  0.451      1.000E-06  13.3      03_01_10                                
 403              (3,2,1)          DELAY    -7.00       5.08       17.7       6.000E-04  6.000E-06  0.451      1.000E-06  13.3      03_02_01                                
 404              (3,2,2)          DELAY    -7.00       5.08       17.7       6.000E-04  6.000E-06  0.451      1.000E-06  13.3      03_02_02                                
 405              (3,2,3)          DELAY    -7.00       5.08       17.7       6.000E-04  6.000E-06  0.451      1.000E-06  13.3      03_02_03                                
 406              (3,2,4)          DELAY    -7.00       5.08       17.7       6.000E-04  6.000E-06  0.451      1.000E-06  13.3      03_02_04                                
 407              (3,2,5)          DELAY    -7.00       5.08       17.7       6.000E-04  6.000E-06  0.451      1.000E-06  13.3      03_02_05                                
 408              (3,2,6)          DELAY    -7.00       5.08       17.7       6.000E-04  6.000E-06  0.451      1.000E-06  13.3      03_02_06                                
 409              (3,2,7)          DELAY    -7.00       5.08       17.7       6.000E-04  6.000E-06  0.451      1.000E-06  13.3      03_02_07                                
 410              (3,2,8)          DELAY    -7.00       5.08       17.7       6.000E-04  6.000E-06  0.451      1.000E-06  13.3      03_02_08                                
 411              (3,2,9)          DELAY    -7.00       5.08       17.7       6.000E-04  6.000E-06  0.451      1.000E-06  13.3      03_02_09                                
 412              (3,2,10)         DELAY    -7.00       5.08       17.7       6.000E-04  6.000E-06  0.451      1.000E-06  13.3      03_02_10                                
 413              (3,3,1)          DELAY    -7.00       5.08       17.7       6.000E-04  6.000E-06  0.451      1.000E-06  13.2      03_03_01                                
 414              (3,3,2)          DELAY    -7.00       5.08       17.7       6.000E-04  6.000E-06  0.451      1.000E-06  13.2      03_03_02                                
 415              (3,3,3)          DELAY    -7.00       5.08       17.7       6.000E-04  6.000E-06  0.451      1.000E-06  13.2      03_03_03                                
 416              (3,3,4)          DELAY    -7.00       5.08       17.7       6.000E-04  6.000E-06  0.451      1.000E-06  13.2      03_03_04                                
 417              (3,3,5)          DELAY    -7.00       5.08       17.7       6.000E-04  6.000E-06  0.451      1.000E-06  13.2      03_03_05                                
 418              (3,3,6)          DELAY    -7.00       5.08       17.7       6.000E-04  6.000E-06  0.451      1.000E-06  13.2      03_03_06                                
 419              (3,3,7)          DELAY    -7.00       5.08       17.7       6.000E-04  6.000E-06  0.451      1.000E-06  13.2      03_03_07                                
 420              (3,3,8)          DELAY    -7.00       5.08       17.7       6.000E-04  6.000E-06  0.451      1.000E-06  13.2      03_03_08                                
 421              (3,3,9)          DELAY    -7.00       5.08       17.7       6.000E-04  6.000E-06  0.451      1.000E-06  13.2      03_03_09                                
 422              (3,3,10)         DELAY    -7.00       5.08       17.7       6.000E-04  6.000E-06  0.451      1.000E-06  13.2      03_03_10                                
 423              (3,4,1)          DELAY    -7.00       5.08       17.7       6.000E-04  6.000E-06  0.451      1.000E-06  13.1      03_04_01                                
 424              (3,4,2)          DELAY    -7.00       5.08       17.7       6.000E-04  6.000E-06  0.451      1.000E-06  13.1      03_04_02                                
 425              (3,4,3)          DELAY    -7.00       5.08       17.7       6.000E-04  6.000E-06  0.451      1.000E-06  13.1      03_04_03                                
 426              (3,4,4)          DELAY    -7.00       5.08       17.7       6.000E-04  6.000E-06  0.451      1.000E-06  13.1      03_04_04                                
 427              (3,4,5)          DELAY    -7.00       5.08       17.7       6.000E-04  6.000E-06  0.451      1.000E-06  13.1      03_04_05                                
 428              (3,4,6)          DELAY    -7.00       5.08       17.7       6.000E-04  6.000E-06  0.451      1.000E-06  13.1      03_04_06                                
 429              (3,4,7)          DELAY    -7.00       5.08       17.7       6.000E-04  6.000E-06  0.451      1.000E-06  13.1      03_04_07                                
 430              (3,4,8)          DELAY    -7.00       5.08       17.7       6.000E-04  6.000E-06  0.451      1.000E-06  13.1      03_04_08                                
 431              (3,4,9)          DELAY    -7.00       5.08       17.7       6.000E-04  6.000E-06  0.451      1.000E-06  13.1      03_04_09                                
 432              (3,4,10)         DELAY    -7.00       5.08       17.7       6.000E-04  6.000E-06  0.451      1.000E-06  13.1      03_04_10                                
 433              (3,5,1)          DELAY    -7.00       5.08       17.7       6.000E-04  6.000E-06  0.451      1.000E-06  13.0      03_05_01                                
 434              (3,5,2)          DELAY    -7.00       5.08       17.7       6.000E-04  6.000E-06  0.451      1.000E-06  13.0      03_05_02                                
 435              (3,5,3)          DELAY    -7.00       5.08       17.7       6.000E-04  6.000E-06  0.451      1.000E-06  13.0      03_05_03                                
 436              (3,5,4)          DELAY    -7.00       5.08       17.7       6.000E-04  6.000E-06  0.451      1.000E-06  13.0      03_05_04                                
 437              (3,5,5)          DELAY    -7.00       5.08       17.7       6.000E-04  6.000E-06  0.451      1.000E-06  13.0      03_05_05                                
 438              (3,5,6)          DELAY    -7.00       5.08       17.7       6.000E-04  6.000E-06  0.451      1.000E-06  13.0      03_05_06                                
 439              (3,5,7)          DELAY    -7.00       5.08       17.7       6.000E-04  6.000E-06  0.451      1.000E-06  13.0      03_05_07                                
 440              (3,5,8)          DELAY    -7.00       5.08       17.7       6.000E-04  6.000E-06  0.451      1.000E-06  13.0      03_05_08                                
 441              (3,5,9)          DELAY    -7.00       5.08       17.7       6.000E-04  6.000E-06  0.451      1.000E-06  13.0      03_05_09                                
 442              (3,5,10)         DELAY    -7.00       5.08       17.7       6.000E-04  6.000E-06  0.451      1.000E-06  13.0      03_05_10                                
 443              (3,6,1)          DELAY    -7.00       5.08       17.7       6.000E-04  6.000E-06  0.451      1.000E-06  12.9      03_06_01                                
 444              (3,6,2)          DELAY    -7.00       5.08       17.7       6.000E-04  6.000E-06  0.451      1.000E-06  12.9      03_06_02                                
 445              (3,6,3)          DELAY    -7.00       5.08       17.7       6.000E-04  6.000E-06  0.451      1.000E-06  12.9      03_06_03                                
 446              (3,6,4)          DELAY    -7.00       5.08       17.7       6.000E-04  6.000E-06  0.451      1.000E-06  12.9      03_06_04                                
 447              (3,6,5)          DELAY    -7.00       5.08       17.7       6.000E-04  6.000E-06  0.451      1.000E-06  12.9      03_06_05                                
 448              (3,6,6)          DELAY    -7.00       5.08       17.7       6.000E-04  6.000E-06  0.451      1.000E-06  12.9      03_06_06                                
 449              (3,6,7)          DELAY    -7.00       5.08       17.7       6.000E-04  6.000E-06  0.451      1.000E-06  12.9      03_06_07                                
 450              (3,6,8)          DELAY    -7.00       5.08       17.7       6.000E-04  6.000E-06  0.451      1.000E-06  12.9      03_06_08                                
 451              (3,6,9)          DELAY    -7.00       5.08       17.7       6.000E-04  6.000E-06  0.451      1.000E-06  12.9      03_06_09                                
 452              (3,6,10)         DELAY    -7.00       5.08       17.7       6.000E-04  6.000E-06  0.451      1.000E-06  12.9      03_06_10                                
 453              (3,7,1)          DELAY    -7.00       5.08       17.7       6.000E-04  6.000E-06  0.451      1.000E-06  12.8      03_07_01                                
 454              (3,7,2)          DELAY    -7.00       5.08       17.7       6.000E-04  6.000E-06  0.451      1.000E-06  12.8      03_07_02                                
 455              (3,7,3)          DELAY    -7.00       5.08       17.7       6.000E-04  6.000E-06  0.451      1.000E-06  12.8      03_07_03                                
 456              (3,7,4)          DELAY    -7.00       5.08       17.7       6.000E-04  6.000E-06  0.451      1.000E-06  12.8      03_07_04                                
 457              (3,7,5)          DELAY    -7.00       5.08       17.7       6.000E-04  6.000E-06  0.451      1.000E-06  12.8      03_07_05                                
 458              (3,7,6)          DELAY    -7.00       5.08       17.7       6.000E-04  6.000E-06  0.451      1.000E-06  12.8      03_07_06                                
 459              (3,7,7)          DELAY    -7.00       5.08       17.7       6.000E-04  6.000E-06  0.451      1.000E-06  12.8      03_07_07                                
 460              (3,7,8)          DELAY    -7.00       5.08       17.7       6.000E-04  6.000E-06  0.451      1.000E-06  12.8      03_07_08                                
 461              (3,7,9)          DELAY    -7.00       5.08       17.7       6.000E-04  6.000E-06  0.451      1.000E-06  12.8      03_07_09                                
 462              (3,7,10)         DELAY    -7.00       5.08       17.7       6.000E-04  6.000E-06  0.451      1.000E-06  12.8      03_07_10                                
 463              (3,8,1)          DELAY    -7.00       5.08       17.7       6.000E-04  6.000E-06  0.451      1.000E-06  12.7      03_08_01                                
 464              (3,8,2)          DELAY    -7.00       5.08       17.7       6.000E-04  6.000E-06  0.451      1.000E-06  12.7      03_08_02                                
 465              (3,8,3)          DELAY    -7.00       5.08       17.7       6.000E-04  6.000E-06  0.451      1.000E-06  12.7      03_08_03                                
 466              (3,8,4)          DELAY    -7.00       5.08       17.7       6.000E-04  6.000E-06  0.451      1.000E-06  12.7      03_08_04                                
 467              (3,8,5)          DELAY    -7.00       5.08       17.7       6.000E-04  6.000E-06  0.451      1.000E-06  12.7      03_08_05                                
 468              (3,8,6)          DELAY    -7.00       5.08       17.7       6.000E-04  6.000E-06  0.451      1.000E-06  12.7      03_08_06                                
 469              (3,8,7)          DELAY    -7.00       5.08       17.7       6.000E-04  6.000E-06  0.451      1.000E-06  12.7      03_08_07                                
 470              (3,8,8)          DELAY    -7.00       5.08       17.7       6.000E-04  6.000E-06  0.451      1.000E-06  12.7      03_08_08                                
 471              (3,8,9)          DELAY    -7.00       5.08       17.7       6.000E-04  6.000E-06  0.451      1.000E-06  12.7      03_08_09                                
 472              (3,8,10)         DELAY    -7.00       5.08       17.7       6.000E-04  6.000E-06  0.451      1.000E-06  12.7      03_08_10                                
 473              (3,9,1)          DELAY    -7.00       5.08       17.7       6.000E-04  6.000E-06  0.451      1.000E-06  12.6      03_09_01                                
 474              (3,9,2)          DELAY    -7.00       5.08       17.7       6.000E-04  6.000E-06  0.451      1.000E-06  12.6      03_09_02                                
 475              (3,9,3)          DELAY    -7.00       5.08       17.7       6.000E-04  6.000E-06  0.451      1.000E-06  12.6      03_09_03                                
 476              (3,9,4)          DELAY    -7.00       5.08       17.7       6.000E-04  6.000E-06  0.451      1.000E-06  12.6      03_09_04                                
 477              (3,9,5)          DELAY    -7.00       5.08       17.7       6.000E-04  6.000E-06  0.451      1.000E-06  12.6      03_09_05                                
 478              (3,9,6)          DELAY    -7.00       5.08       17.7       6.000E-04  6.000E-06  0.451      1.000E-06  12.6      03_09_06                                
 479              (3,9,7)          DELAY    -7.00       5.08       17.7       6.000E-04  6.000E-06  0.451      1.000E-06  12.6      03_09_07                                
 480              (3,9,8)          DELAY    -7.00       5.08       17.7       6.000E-04  6.000E-06  0.451      1.000E-06  12.6      03_09_08                                
 481              (3,9,9)          DELAY    -7.00       5.08       17.7       6.000E-04  6.000E-06  0.451      1.000E-06  12.6      03_09_09                                
 482              (3,9,10)         DELAY    -7.00       5.08       17.7       6.000E-04  6.000E-06  0.451      1.000E-06  12.6      03_09_10                                
 483              (3,10,1)         DELAY    -7.00       5.08       17.7       6.000E-04  6.000E-06  0.451      1.000E-06  12.6      03_10_01                                
 484              (3,10,2)         DELAY    -7.00       5.08       17.7       6.000E-04  6.000E-06  0.451      1.000E-06  12.6      03_10_02                                
 485              (3,10,3)         DELAY    -7.00       5.08       17.7       6.000E-04  6.000E-06  0.451      1.000E-06  12.6      03_10_03                                
 486              (3,10,4)         DELAY    -7.00       5.08       17.7       6.000E-04  6.000E-06  0.451      1.000E-06  12.6      03_10_04                                
 487              (3,10,5)         DELAY    -7.00       5.08       17.7       6.000E-04  6.000E-06  0.451      1.000E-06  12.6      03_10_05                                
 488              (3,10,6)         DELAY    -7.00       5.08       17.7       6.000E-04  6.000E-06  0.451      1.000E-06  12.6      03_10_06                                
 489              (3,10,7)         DELAY    -7.00       5.08       17.7       6.000E-04  6.000E-06  0.451      1.000E-06  12.6      03_10_07                                
 490              (3,10,8)         DELAY    -7.00       5.08       17.7       6.000E-04  6.000E-06  0.451      1.000E-06  12.6      03_10_08                                
 491              (3,10,9)         DELAY    -7.00       5.08       17.7       6.000E-04  6.000E-06  0.451      1.000E-06  12.6      03_10_09                                
 492             (3,10,10)         DELAY    -7.00       5.08       17.7       6.000E-04  6.000E-06  0.451      1.000E-06  12.6      03_10_10                                
 ---------------------------------------------------------------------------------------------------------------------------------------------------------------------------


    BINARY GRID INFORMATION WILL BE WRITTEN TO:
      UNIT NUMBER: 1021
      FILE NAME: csub_sub03b.dis.grb

 OPENED csub_sub03b.dis.grb
 FILE TYPE:DATA(BINARY)   UNIT 1021   STATUS:REPLACE             
 FORMAT:UNFORMATTED            ACCESS:STREAM              
 ACTION:READWRITE           

      THE LAST TIME STEP WILL BE PRINTED
      THE LAST TIME STEP WILL BE PRINTED
 # File generated by Flopy version 3.5.0.dev0 on 10/18/2023 at 21:00:16.

 PROCESSING OC OPTIONS

    BUDGET INFORMATION WILL BE WRITTEN TO:
      UNIT NUMBER: 1022
      FILE NAME: csub_sub03b.cbc

 OPENED csub_sub03b.cbc
 FILE TYPE:DATA(BINARY)   UNIT 1022   STATUS:REPLACE             
 FORMAT:UNFORMATTED            ACCESS:STREAM              
 ACTION:READWRITE           

    HEAD INFORMATION WILL BE WRITTEN TO:
      UNIT NUMBER: 1023
      FILE NAME: csub_sub03b.hds

 OPENED csub_sub03b.hds
 FILE TYPE:DATA(BINARY)   UNIT 1023   STATUS:REPLACE             
 FORMAT:UNFORMATTED            ACCESS:STREAM              
 ACTION:READWRITE           

 END OF OC OPTIONS

start timestep kper="1" kstp="1" mode="normal"


 BEGIN READING OUTPUT CONTROL FOR STRESS PERIOD 1
      THE LAST TIME STEP WILL BE SAVED
      THE LAST TIME STEP WILL BE SAVED
      THE LAST TIME STEP WILL BE PRINTED
      THE LAST TIME STEP WILL BE PRINTED

 END READING OUTPUT CONTROL FOR STRESS PERIOD 1


 PROCESSING STORAGE PERIOD DATA
 END PROCESSING STORAGE PERIOD DATA


 STRESS PERIOD 1 IS STEADY-STATE


 REUSING CSUBS FROM LAST STRESS PERIOD
 UBDSV1 SAVING  CSUB-CGELASTIC  ON UNIT   1022 AT TIME STEP      1, STRESS PERIOD      1
 UBDSV06 SAVING    CSUB-ELASTIC  IN MODEL CSUB_SUB03B      PACKAGE CSUB_SUB03B     CONNECTED TO MODEL CSUB_SUB03B      PACKAGE CSUB             ON UNIT   1022 AT TIME STEP      1, STRESS PERIOD      1
 UBDSV06 SAVING  CSUB-INELASTIC  IN MODEL CSUB_SUB03B      PACKAGE CSUB_SUB03B     CONNECTED TO MODEL CSUB_SUB03B      PACKAGE CSUB             ON UNIT   1022 AT TIME STEP      1, STRESS PERIOD      1
 UBDSV1 SAVING  CSUB-WATERCOMP  ON UNIT   1022 AT TIME STEP      1, STRESS PERIOD      1

 CSUB-COMPACTION WILL BE SAVED ON UNIT 1018 AT END OF TIME STEP    1, STRESS PERIOD    1
1
  HEAD IN LAYER   1 AT END OF TIME STEP   1 IN STRESS PERIOD    1
  ---------------------------------------------------------------------------

                1               2               3               4               5               6               7               8               9              10
 ................................................................................................................................................................
   1      23.3472         22.9176         22.1026         21.5778         21.3061         21.2732         21.4818         21.9517         22.7254         23.1326    
   2      22.1173         21.5078         20.9853         20.6053         20.3894         20.3456         20.4763         20.7788         21.2391         21.8118    
   3      20.3714         19.7782         19.3229         18.9998         18.8068         18.7425         18.8062         18.9993         19.3300         19.8267    
   4      18.0364         17.5196         17.1506         16.8921         16.7269         16.6448         16.6362         16.6879         16.7775         16.8637    
   5      14.7956         14.6858         14.5488         14.4231         14.3261         14.2642         14.2366         14.2363         14.2514         14.2662    
   6      12.0049         11.9670         11.9077         11.8441         11.7895         11.7515         11.7319         11.7274         11.7314         11.7361    
   7      9.36303         9.33211         9.28132         9.22661         9.18392         9.16242         9.16376         9.18218         9.20546         9.22131    
   8      6.82995         6.76637         6.66082         6.55119         6.48357         6.47194         6.51724         6.60744         6.69851         6.75434    
   9      4.52424         4.35010         4.03926         3.69007         3.54144         3.53584         3.67338         4.01160         4.31396         4.48353    
  10      2.87723         2.45418         1.54536         0.00000         0.00000         0.00000         0.00000         1.53335         2.43408         2.85302    
1
  HEAD IN LAYER   2 AT END OF TIME STEP   1 IN STRESS PERIOD    1
  ---------------------------------------------------------------------------

                1               2               3               4               5               6               7               8               9              10
 ................................................................................................................................................................
   1      14.7549         14.8172         14.8599         14.8859         14.8968         14.8937         14.8765         14.8445         14.7961         14.7287    
   2      14.4233         16.7839         16.8848         16.7292         16.6282         16.6066         16.6658         16.7841         16.6645         14.3786    
   3      14.0068         16.0340         16.1191         15.9806         15.8858         15.8533         15.8830         15.9578         15.8338         13.9464    
   4      13.5184         14.9555         14.9959         14.8830         14.8014         14.7600         14.7542         14.7667         14.6364         13.4480    
   5      12.9778         13.6205         13.6488         13.5929         13.5447         13.5135         13.4989         13.4928         13.4254         12.9109    
   6      12.4154         12.3190         12.2767         12.2436         12.2160         12.1967         12.1869         12.1861         12.2093         12.3572    
   7      11.8555         11.0540         10.9137         10.8774         10.8550         10.8440         10.8455         10.8636         10.9925         11.8082    
   8      11.3207         9.82943         9.56404         9.49316         9.45763         9.45168         9.47582         9.53679         9.79493         11.2848    
   9      10.8323         8.75596         8.32734         8.14706         8.07207         8.06918         8.13846         8.31318         8.73696         10.8080    
  10      10.4094         10.3205         10.2495         10.1988         10.1728         10.1714         10.1945         10.2423         10.3105         10.3965    
1
  HEAD IN LAYER   3 AT END OF TIME STEP   1 IN STRESS PERIOD    1
  ---------------------------------------------------------------------------

                1               2               3               4               5               6               7               8               9              10
 ................................................................................................................................................................
   1      13.0452         13.0463         13.0475         13.0483         13.0486         13.0482         13.0472         13.0458         13.0441         13.0428    
   2      13.0202         13.0247         13.0275         13.0286         13.0288         13.0283         13.0271         13.0251         13.0218         13.0172    
   3      12.9605         12.9647         12.9675         12.9686         12.9687         12.9680         12.9667         12.9645         12.9611         12.9568    
   4      12.8711         12.8742         12.8760         12.8767         12.8765         12.8757         12.8745         12.8727         12.8701         12.8671    
   5      12.7619         12.7632         12.7639         12.7640         12.7636         12.7629         12.7621         12.7610         12.7597         12.7583    
   6      12.6449         12.6445         12.6438         12.6430         12.6424         12.6419         12.6416         12.6415         12.6417         12.6420    
   7      12.5327         12.5304         12.5283         12.5266         12.5256         12.5253         12.5256         12.5267         12.5284         12.5305    
   8      12.4375         12.4336         12.4301         12.4277         12.4263         12.4260         12.4269         12.4290         12.4322         12.4359    
   9      12.3711         12.3665         12.3624         12.3595         12.3580         12.3578         12.3590         12.3616         12.3654         12.3700    
  10      12.3419         12.3404         12.3384         12.3366         12.3356         12.3355         12.3362         12.3377         12.3395         12.3410    

 HEAD WILL BE SAVED ON UNIT 1023 AT END OF TIME STEP    1, STRESS PERIOD    1


  VOLUME BUDGET FOR ENTIRE MODEL AT END OF TIME STEP    1, STRESS PERIOD   1
  ---------------------------------------------------------------------------------------------------

     CUMULATIVE VOLUME      L**3       RATES FOR THIS TIME STEP      L**3/T          PACKAGE NAME    
     ------------------                 ------------------------                     ----------------

           IN:                                      IN:
           ---                                      ---
              STO-SS =           0.0000                STO-SS =           0.0000     STORAGE                          
      CSUB-CGELASTIC =           0.0000        CSUB-CGELASTIC =           0.0000     CSUB                             
        CSUB-ELASTIC =           0.0000          CSUB-ELASTIC =           0.0000     CSUB                             
      CSUB-INELASTIC =           0.0000        CSUB-INELASTIC =           0.0000     CSUB                             
      CSUB-WATERCOMP =           0.0000        CSUB-WATERCOMP =           0.0000     CSUB                             
                 WEL =           0.0000                   WEL =           0.0000     WEL_0                            
                RCHA =       27000.0000                  RCHA =       27000.0000     RCHA_0                           
                 CHD =           0.0000                   CHD =           0.0000     CHD_0                            

            TOTAL IN =       27000.0000              TOTAL IN =       27000.0000

          OUT:                                     OUT:
          ----                                     ----
              STO-SS =           0.0000                STO-SS =           0.0000     STORAGE                          
      CSUB-CGELASTIC =           0.0000        CSUB-CGELASTIC =           0.0000     CSUB                             
        CSUB-ELASTIC =           0.0000          CSUB-ELASTIC =           0.0000     CSUB                             
      CSUB-INELASTIC =           0.0000        CSUB-INELASTIC =           0.0000     CSUB                             
      CSUB-WATERCOMP =           0.0000        CSUB-WATERCOMP =           0.0000     CSUB                             
                 WEL =           0.0000                   WEL =           0.0000     WEL_0                            
                RCHA =           0.0000                  RCHA =           0.0000     RCHA_0                           
                 CHD =       27000.0000                   CHD =       27000.0000     CHD_0                            

           TOTAL OUT =       27000.0000             TOTAL OUT =       27000.0000

            IN - OUT =       4.2466E-08              IN - OUT =       4.2466E-08

 PERCENT DISCREPANCY =           0.00     PERCENT DISCREPANCY =           0.00




         TIME SUMMARY AT END OF TIME STEP    1 IN STRESS PERIOD    1
                    SECONDS     MINUTES      HOURS       DAYS        YEARS
                    -----------------------------------------------------------
   TIME STEP LENGTH  86400.      1440.0      24.000      1.0000     2.73785E-03
 STRESS PERIOD TIME  86400.      1440.0      24.000      1.0000     2.73785E-03
         TOTAL TIME  86400.      1440.0      24.000      1.0000     2.73785E-03


end timestep


start timestep kper="2" kstp="1" mode="normal"


 END OF FILE DETECTED IN OUTPUT CONTROL.
 CURRENT OUTPUT CONTROL SETTINGS WILL BE 
 REPEATED UNTIL THE END OF THE SIMULATION.

 OUTPUT CONTROL FOR STRESS PERIOD 2 IS REPEATED USING SETTINGS FROM A PREVIOUS STRESS PERIOD.


 PROCESSING STORAGE PERIOD DATA
 END PROCESSING STORAGE PERIOD DATA


 STRESS PERIOD 2 IS TRANSIENT


 REUSING CSUBS FROM LAST STRESS PERIOD
 ---------------------------------------------------
  WEL NO.    LAYER    ROW     COL     STRESS RATE   
 ---------------------------------------------------
     1         3       3       6    -14000.0000     
     2         3       3       7    -8000.00000     
     3         3       4       6    -5000.00000     
     4         3       4       7    -3000.00000     
 ---------------------------------------------------



 CSUB PACKAGE CALCULATED INITIAL INTERBED STRESSES AT THE CELL BOTTOM
 ---------------------------------------------------------------------------------------------------------------------------
 INTERBED                                                          PRECONSOLIDATION                                         
 NUMBER            CELLID        GEOSTATIC STRESS EFFECTIVE STRESS      STRESS      BOUNDNAME                               
 ---------------------------------------------------------------------------------------------------------------------------
 1                (1,1,1)         200.000000       76.6527642       107.000000      01_01_01                                
 2                (1,1,2)         200.000000       77.0823827       107.000000      01_01_02                                
 3                (1,1,3)         200.000000       77.8973923       107.000000      01_01_03                                
 4                (1,1,4)         200.000000       78.4222189       107.000000      01_01_04                                
 5                (1,1,5)         200.000000       78.6938946       107.000000      01_01_05                                
 6                (1,1,6)         200.000000       78.7267832       107.000000      01_01_06                                
 7                (1,1,7)         200.000000       78.5182026       107.000000      01_01_07                                
 8                (1,1,8)         200.000000       78.0483405       107.000000      01_01_08                                
 9                (1,1,9)         200.000000       77.2746145       107.000000      01_01_09                                
 10               (1,1,10)        200.000000       76.8674125       107.000000      01_01_10                                
 11               (1,2,1)         200.000000       77.8827363       107.000000      01_02_01                                
 12               (1,2,2)         200.000000       78.4922156       107.000000      01_02_02                                
 13               (1,2,3)         200.000000       79.0146684       107.000000      01_02_03                                
 14               (1,2,4)         200.000000       79.3946710       107.000000      01_02_04                                
 15               (1,2,5)         200.000000       79.6105876       107.000000      01_02_05                                
 16               (1,2,6)         200.000000       79.6543829       107.000000      01_02_06                                
 17               (1,2,7)         200.000000       79.5236966       107.000000      01_02_07                                
 18               (1,2,8)         200.000000       79.2211531       107.000000      01_02_08                                
 19               (1,2,9)         200.000000       78.7609429       107.000000      01_02_09                                
 20               (1,2,10)        200.000000       78.1881815       107.000000      01_02_10                                
 21               (1,3,1)         200.000000       79.6286274       107.000000      01_03_01                                
 22               (1,3,2)         200.000000       80.2218115       107.000000      01_03_02                                
 23               (1,3,3)         200.000000       80.6771421       107.000000      01_03_03                                
 24               (1,3,4)         200.000000       81.0002097       107.000000      01_03_04                                
 25               (1,3,5)         200.000000       81.1931984       107.000000      01_03_05                                
 26               (1,3,6)         200.000000       81.2574753       107.000000      01_03_06                                
 27               (1,3,7)         200.000000       81.1937565       107.000000      01_03_07                                
 28               (1,3,8)         200.000000       81.0006639       107.000000      01_03_08                                
 29               (1,3,9)         200.000000       80.6700287       107.000000      01_03_09                                
 30               (1,3,10)        200.000000       80.1733056       107.000000      01_03_10                                
 31               (1,4,1)         200.000000       81.9635951       107.000000      01_04_01                                
 32               (1,4,2)         200.000000       82.4803561       107.000000      01_04_02                                
 33               (1,4,3)         200.000000       82.8494453       107.000000      01_04_03                                
 34               (1,4,4)         200.000000       83.1079482       107.000000      01_04_04                                
 35               (1,4,5)         200.000000       83.2731308       107.000000      01_04_05                                
 36               (1,4,6)         200.000000       83.3552153       107.000000      01_04_06                                
 37               (1,4,7)         200.000000       83.3637721       107.000000      01_04_07                                
 38               (1,4,8)         200.000000       83.3120962       107.000000      01_04_08                                
 39               (1,4,9)         200.000000       83.2224889       107.000000      01_04_09                                
 40               (1,4,10)        200.000000       83.1362556       107.000000      01_04_10                                
 41               (1,5,1)         200.000000       85.2044104       107.000000      01_05_01                                
 42               (1,5,2)         200.000000       85.3142039       107.000000      01_05_02                                
 43               (1,5,3)         200.000000       85.4511649       107.000000      01_05_03                                
 44               (1,5,4)         200.000000       85.5769138       107.000000      01_05_04                                
 45               (1,5,5)         200.000000       85.6739033       107.000000      01_05_05                                
 46               (1,5,6)         200.000000       85.7357573       107.000000      01_05_06                                
 47               (1,5,7)         200.000000       85.7634268       107.000000      01_05_07                                
 48               (1,5,8)         200.000000       85.7637263       107.000000      01_05_08                                
 49               (1,5,9)         200.000000       85.7486064       107.000000      01_05_09                                
 50               (1,5,10)        200.000000       85.7337784       107.000000      01_05_10                                
 51               (1,6,1)         200.000000       87.9951453       107.000000      01_06_01                                
 52               (1,6,2)         200.000000       88.0329896       107.000000      01_06_02                                
 53               (1,6,3)         200.000000       88.0923334       107.000000      01_06_03                                
 54               (1,6,4)         200.000000       88.1559357       107.000000      01_06_04                                
 55               (1,6,5)         200.000000       88.2105296       107.000000      01_06_05                                
 56               (1,6,6)         200.000000       88.2485324       107.000000      01_06_06                                
 57               (1,6,7)         200.000000       88.2681357       107.000000      01_06_07                                
 58               (1,6,8)         200.000000       88.2725733       107.000000      01_06_08                                
 59               (1,6,9)         200.000000       88.2686000       107.000000      01_06_09                                
 60               (1,6,10)        200.000000       88.2638572       107.000000      01_06_10                                
 61               (1,7,1)         200.000000       90.6369665       107.000000      01_07_01                                
 62               (1,7,2)         200.000000       90.6678888       107.000000      01_07_02                                
 63               (1,7,3)         200.000000       90.7186825       107.000000      01_07_03                                
 64               (1,7,4)         200.000000       90.7733885       107.000000      01_07_04                                
 65               (1,7,5)         200.000000       90.8160792       107.000000      01_07_05                                
 66               (1,7,6)         200.000000       90.8375770       107.000000      01_07_06                                
 67               (1,7,7)         200.000000       90.8362376       107.000000      01_07_07                                
 68               (1,7,8)         200.000000       90.8178156       107.000000      01_07_08                                
 69               (1,7,9)         200.000000       90.7945393       107.000000      01_07_09                                
 70               (1,7,10)        200.000000       90.7786914       107.000000      01_07_10                                
 71               (1,8,1)         200.000000       93.1700534       107.000000      01_08_01                                
 72               (1,8,2)         200.000000       93.2336335       107.000000      01_08_02                                
 73               (1,8,3)         200.000000       93.3391768       107.000000      01_08_03                                
 74               (1,8,4)         200.000000       93.4488076       107.000000      01_08_04                                
 75               (1,8,5)         200.000000       93.5164264       107.000000      01_08_05                                
 76               (1,8,6)         200.000000       93.5280603       107.000000      01_08_06                                
 77               (1,8,7)         200.000000       93.4827603       107.000000      01_08_07                                
 78               (1,8,8)         200.000000       93.3925634       107.000000      01_08_08                                
 79               (1,8,9)         200.000000       93.3014873       107.000000      01_08_09                                
 80               (1,8,10)        200.000000       93.2456551       107.000000      01_08_10                                
 81               (1,9,1)         200.000000       95.4757644       107.000000      01_09_01                                
 82               (1,9,2)         200.000000       95.6499035       107.000000      01_09_02                                
 83               (1,9,3)         200.000000       95.9607409       107.000000      01_09_03                                
 84               (1,9,4)         200.000000       96.3099261       107.000000      01_09_04                                
 85               (1,9,5)         200.000000       96.4585578       107.000000      01_09_05                                
 86               (1,9,6)         200.000000       96.4641579       107.000000      01_09_06                                
 87               (1,9,7)         200.000000       96.3266218       107.000000      01_09_07                                
 88               (1,9,8)         200.000000       95.9884042       107.000000      01_09_08                                
 89               (1,9,9)         200.000000       95.6860380       107.000000      01_09_09                                
 90               (1,9,10)        200.000000       95.5164733       107.000000      01_09_10                                
 91               (1,10,1)        200.000000       97.1227670       107.000000      01_10_01                                
 92               (1,10,2)        200.000000       97.5458158       107.000000      01_10_02                                
 93               (1,10,3)        200.000000       98.4546422       107.000000      01_10_03                                
 94               (1,10,8)        200.000000       98.4666483       107.000000      01_10_08                                
 95               (1,10,9)        200.000000       97.5659211       107.000000      01_10_09                                
 96              (1,10,10)        200.000000       97.1469794       107.000000      01_10_10                                
 97               (2,1,1)         300.000000       135.245078       157.000000      02_01_01                                
 98               (2,1,2)         300.000000       135.182832       157.000000      02_01_02                                
 99               (2,1,3)         300.000000       135.140066       157.000000      02_01_03                                
 100              (2,1,4)         300.000000       135.114097       157.000000      02_01_04                                
 101              (2,1,5)         300.000000       135.103152       157.000000      02_01_05                                
 102              (2,1,6)         300.000000       135.106322       157.000000      02_01_06                                
 103              (2,1,7)         300.000000       135.123523       157.000000      02_01_07                                
 104              (2,1,8)         300.000000       135.155498       157.000000      02_01_08                                
 105              (2,1,9)         300.000000       135.203884       157.000000      02_01_09                                
 106              (2,1,10)        300.000000       135.271268       157.000000      02_01_10                                
 107              (2,2,1)         300.000000       135.576652       157.000000      02_02_01                                
 108              (2,2,2)         300.000000       133.216112       157.000000      02_02_02                                
 109              (2,2,3)         300.000000       133.115249       157.000000      02_02_03                                
 110              (2,2,4)         300.000000       133.270826       157.000000      02_02_04                                
 111              (2,2,5)         300.000000       133.371834       157.000000      02_02_05                                
 112              (2,2,6)         300.000000       133.393361       157.000000      02_02_06                                
 113              (2,2,7)         300.000000       133.334193       157.000000      02_02_07                                
 114              (2,2,8)         300.000000       133.215852       157.000000      02_02_08                                
 115              (2,2,9)         300.000000       133.335503       157.000000      02_02_09                                
 116              (2,2,10)        300.000000       135.621420       157.000000      02_02_10                                
 117              (2,3,1)         300.000000       135.993154       157.000000      02_03_01                                
 118              (2,3,2)         300.000000       133.965982       157.000000      02_03_02                                
 119              (2,3,3)         300.000000       133.880917       157.000000      02_03_03                                
 120              (2,3,4)         300.000000       134.019430       157.000000      02_03_04                                
 121              (2,3,5)         300.000000       134.114197       157.000000      02_03_05                                
 122              (2,3,6)         300.000000       134.146650       157.000000      02_03_06                                
 123              (2,3,7)         300.000000       134.117001       157.000000      02_03_07                                
 124              (2,3,8)         300.000000       134.042243       157.000000      02_03_08                                
 125              (2,3,9)         300.000000       134.166165       157.000000      02_03_09                                
 126              (2,3,10)        300.000000       136.053573       157.000000      02_03_10                                
 127              (2,4,1)         300.000000       136.481578       157.000000      02_04_01                                
 128              (2,4,2)         300.000000       135.044481       157.000000      02_04_02                                
 129              (2,4,3)         300.000000       135.004147       157.000000      02_04_03                                
 130              (2,4,4)         300.000000       135.117035       157.000000      02_04_04                                
 131              (2,4,5)         300.000000       135.198561       157.000000      02_04_05                                
 132              (2,4,6)         300.000000       135.239960       157.000000      02_04_06                                
 133              (2,4,7)         300.000000       135.245762       157.000000      02_04_07                                
 134              (2,4,8)         300.000000       135.233336       157.000000      02_04_08                                
 135              (2,4,9)         300.000000       135.363590       157.000000      02_04_09                                
 136              (2,4,10)        300.000000       136.551959       157.000000      02_04_10                                
 137              (2,5,1)         300.000000       137.022196       157.000000      02_05_01                                
 138              (2,5,2)         300.000000       136.379491       157.000000      02_05_02                                
 139              (2,5,3)         300.000000       136.351165       157.000000      02_05_03                                
 140              (2,5,4)         300.000000       136.407066       157.000000      02_05_04                                
 141              (2,5,5)         300.000000       136.455254       157.000000      02_05_05                                
 142              (2,5,6)         300.000000       136.486502       157.000000      02_05_06                                
 143              (2,5,7)         300.000000       136.501147       157.000000      02_05_07                                
 144              (2,5,8)         300.000000       136.507170       157.000000      02_05_08                                
 145              (2,5,9)         300.000000       136.574642       157.000000      02_05_09                                
 146              (2,5,10)        300.000000       137.089113       157.000000      02_05_10                                
 147              (2,6,1)         300.000000       137.584606       157.000000      02_06_01                                
 148              (2,6,2)         300.000000       137.680977       157.000000      02_06_02                                
 149              (2,6,3)         300.000000       137.723310       157.000000      02_06_03                                
 150              (2,6,4)         300.000000       137.756353       157.000000      02_06_04                                
 151              (2,6,5)         300.000000       137.784046       157.000000      02_06_05                                
 152              (2,6,6)         300.000000       137.803297       157.000000      02_06_06                                
 153              (2,6,7)         300.000000       137.813131       157.000000      02_06_07                                
 154              (2,6,8)         300.000000       137.813860       157.000000      02_06_08                                
 155              (2,6,9)         300.000000       137.790732       157.000000      02_06_09                                
 156              (2,6,10)        300.000000       137.642757       157.000000      02_06_10                                
 157              (2,7,1)         300.000000       138.144460       157.000000      02_07_01                                
 158              (2,7,2)         300.000000       138.946049       157.000000      02_07_02                                
 159              (2,7,3)         300.000000       139.086268       157.000000      02_07_03                                
 160              (2,7,4)         300.000000       139.122588       157.000000      02_07_04                                
 161              (2,7,5)         300.000000       139.145028       157.000000      02_07_05                                
 162              (2,7,6)         300.000000       139.155957       157.000000      02_07_06                                
 163              (2,7,7)         300.000000       139.154521       157.000000      02_07_07                                
 164              (2,7,8)         300.000000       139.136433       157.000000      02_07_08                                
 165              (2,7,9)         300.000000       139.007522       157.000000      02_07_09                                
 166              (2,7,10)        300.000000       138.191774       157.000000      02_07_10                                
 167              (2,8,1)         300.000000       138.679323       157.000000      02_08_01                                
 168              (2,8,2)         300.000000       140.170568       157.000000      02_08_02                                
 169              (2,8,3)         300.000000       140.435959       157.000000      02_08_03                                
 170              (2,8,4)         300.000000       140.506838       157.000000      02_08_04                                
 171              (2,8,5)         300.000000       140.542372       157.000000      02_08_05                                
 172              (2,8,6)         300.000000       140.548316       157.000000      02_08_06                                
 173              (2,8,7)         300.000000       140.524180       157.000000      02_08_07                                
 174              (2,8,8)         300.000000       140.463208       157.000000      02_08_08                                
 175              (2,8,9)         300.000000       140.205068       157.000000      02_08_09                                
 176              (2,8,10)        300.000000       138.715153       157.000000      02_08_10                                
 177              (2,9,1)         300.000000       139.167738       157.000000      02_09_01                                
 178              (2,9,2)         300.000000       141.244035       157.000000      02_09_02                                
 179              (2,9,3)         300.000000       141.672657       157.000000      02_09_03                                
 180              (2,9,4)         300.000000       141.852937       157.000000      02_09_04                                
 181              (2,9,5)         300.000000       141.927933       157.000000      02_09_05                                
 182              (2,9,6)         300.000000       141.930821       157.000000      02_09_06                                
 183              (2,9,7)         300.000000       141.861537       157.000000      02_09_07                                
 184              (2,9,8)         300.000000       141.686820       157.000000      02_09_08                                
 185              (2,9,9)         300.000000       141.263044       157.000000      02_09_09                                
 186              (2,9,10)        300.000000       139.192022       157.000000      02_09_10                                
 187              (2,10,1)        300.000000       139.590622       157.000000      02_10_01                                
 188              (2,10,2)        300.000000       139.679544       157.000000      02_10_02                                
 189              (2,10,3)        300.000000       139.750536       157.000000      02_10_03                                
 190              (2,10,4)        300.000000       139.801202       157.000000      02_10_04                                
 191              (2,10,5)        300.000000       139.827172       157.000000      02_10_05                                
 192              (2,10,6)        300.000000       139.828588       157.000000      02_10_06                                
 193              (2,10,7)        300.000000       139.805456       157.000000      02_10_07                                
 194              (2,10,8)        300.000000       139.757651       157.000000      02_10_08                                
 195              (2,10,9)        300.000000       139.689524       157.000000      02_10_09                                
 196             (2,10,10)        300.000000       139.603461       157.000000      02_10_10                                
 197              (3,1,1)         700.000000       336.954791       357.000000      03_01_01                                
 198              (3,1,2)         700.000000       336.953672       357.000000      03_01_02                                
 199              (3,1,3)         700.000000       336.952455       357.000000      03_01_03                                
 200              (3,1,4)         700.000000       336.951656       357.000000      03_01_04                                
 201              (3,1,5)         700.000000       336.951445       357.000000      03_01_05                                
 202              (3,1,6)         700.000000       336.951841       357.000000      03_01_06                                
 203              (3,1,7)         700.000000       336.952803       357.000000      03_01_07                                
 204              (3,1,8)         700.000000       336.954229       357.000000      03_01_08                                
 205              (3,1,9)         700.000000       336.955885       357.000000      03_01_09                                
 206              (3,1,10)        700.000000       336.957223       357.000000      03_01_10                                
 207              (3,2,1)         700.000000       336.979785       357.000000      03_02_01                                
 208              (3,2,2)         700.000000       336.975310       357.000000      03_02_02                                
 209              (3,2,3)         700.000000       336.972536       357.000000      03_02_03                                
 210              (3,2,4)         700.000000       336.971356       357.000000      03_02_04                                
 211              (3,2,5)         700.000000       336.971191       357.000000      03_02_05                                
 212              (3,2,6)         700.000000       336.971726       357.000000      03_02_06                                
 213              (3,2,7)         700.000000       336.972898       357.000000      03_02_07                                
 214              (3,2,8)         700.000000       336.974895       357.000000      03_02_08                                
 215              (3,2,9)         700.000000       336.978182       357.000000      03_02_09                                
 216              (3,2,10)        700.000000       336.982804       357.000000      03_02_10                                
 217              (3,3,1)         700.000000       337.039517       357.000000      03_03_01                                
 218              (3,3,2)         700.000000       337.035252       357.000000      03_03_02                                
 219              (3,3,3)         700.000000       337.032531       357.000000      03_03_03                                
 220              (3,3,4)         700.000000       337.031399       357.000000      03_03_04                                
 221              (3,3,5)         700.000000       337.031331       357.000000      03_03_05                                
 222              (3,3,6)         700.000000       337.032008       357.000000      03_03_06                                
 223              (3,3,7)         700.000000       337.033350       357.000000      03_03_07                                
 224              (3,3,8)         700.000000       337.035513       357.000000      03_03_08                                
 225              (3,3,9)         700.000000       337.038851       357.000000      03_03_09                                
 226              (3,3,10)        700.000000       337.043211       357.000000      03_03_10                                
 227              (3,4,1)         700.000000       337.128867       357.000000      03_04_01                                
 228              (3,4,2)         700.000000       337.125846       357.000000      03_04_02                                
 229              (3,4,3)         700.000000       337.123988       357.000000      03_04_03                                
 230              (3,4,4)         700.000000       337.123331       357.000000      03_04_04                                
 231              (3,4,5)         700.000000       337.123500       357.000000      03_04_05                                
 232              (3,4,6)         700.000000       337.124254       357.000000      03_04_06                                
 233              (3,4,7)         700.000000       337.125514       357.000000      03_04_07                                
 234              (3,4,8)         700.000000       337.127348       357.000000      03_04_08                                
 235              (3,4,9)         700.000000       337.129908       357.000000      03_04_09                                
 236              (3,4,10)        700.000000       337.132931       357.000000      03_04_10                                
 237              (3,5,1)         700.000000       337.238066       357.000000      03_05_01                                
 238              (3,5,2)         700.000000       337.236768       357.000000      03_05_02                                
 239              (3,5,3)         700.000000       337.236080       357.000000      03_05_03                                
 240              (3,5,4)         700.000000       337.236035       357.000000      03_05_04                                
 241              (3,5,5)         700.000000       337.236424       357.000000      03_05_05                                
 242              (3,5,6)         700.000000       337.237086       357.000000      03_05_06                                
 243              (3,5,7)         700.000000       337.237945       357.000000      03_05_07                                
 244              (3,5,8)         700.000000       337.239004       357.000000      03_05_08                                
 245              (3,5,9)         700.000000       337.240308       357.000000      03_05_09                                
 246              (3,5,10)        700.000000       337.241715       357.000000      03_05_10                                
 247              (3,6,1)         700.000000       337.355050       357.000000      03_06_01                                
 248              (3,6,2)         700.000000       337.355533       357.000000      03_06_02                                
 249              (3,6,3)         700.000000       337.356217       357.000000      03_06_03                                
 250              (3,6,4)         700.000000       337.356956       357.000000      03_06_04                                
 251              (3,6,5)         700.000000       337.357629       357.000000      03_06_05                                
 252              (3,6,6)         700.000000       337.358136       357.000000      03_06_06                                
 253              (3,6,7)         700.000000       337.358419       357.000000      03_06_07                                
 254              (3,6,8)         700.000000       337.358461       357.000000      03_06_08                                
 255              (3,6,9)         700.000000       337.358279       357.000000      03_06_09                                
 256              (3,6,10)        700.000000       337.357963       357.000000      03_06_10                                
 257              (3,7,1)         700.000000       337.467347       357.000000      03_07_01                                
 258              (3,7,2)         700.000000       337.469593       357.000000      03_07_02                                
 259              (3,7,3)         700.000000       337.471723       357.000000      03_07_03                                
 260              (3,7,4)         700.000000       337.473350       357.000000      03_07_04                                
 261              (3,7,5)         700.000000       337.474379       357.000000      03_07_05                                
 262              (3,7,6)         700.000000       337.474743       357.000000      03_07_06                                
 263              (3,7,7)         700.000000       337.474402       357.000000      03_07_07                                
 264              (3,7,8)         700.000000       337.473345       357.000000      03_07_08                                
 265              (3,7,9)         700.000000       337.471602       357.000000      03_07_09                                
 266              (3,7,10)        700.000000       337.469526       357.000000      03_07_10                                
 267              (3,8,1)         700.000000       337.562534       357.000000      03_08_01                                
 268              (3,8,2)         700.000000       337.566398       357.000000      03_08_02                                
 269              (3,8,3)         700.000000       337.569869       357.000000      03_08_03                                
 270              (3,8,4)         700.000000       337.572348       357.000000      03_08_04                                
 271              (3,8,5)         700.000000       337.573741       357.000000      03_08_05                                
 272              (3,8,6)         700.000000       337.573995       357.000000      03_08_06                                
 273              (3,8,7)         700.000000       337.573085       357.000000      03_08_07                                
 274              (3,8,8)         700.000000       337.571013       357.000000      03_08_08                                
 275              (3,8,9)         700.000000       337.567832       357.000000      03_08_09                                
 276              (3,8,10)        700.000000       337.564115       357.000000      03_08_10                                
 277              (3,9,1)         700.000000       337.628868       357.000000      03_09_01                                
 278              (3,9,2)         700.000000       337.633520       357.000000      03_09_02                                
 279              (3,9,3)         700.000000       337.637590       357.000000      03_09_03                                
 280              (3,9,4)         700.000000       337.640475       357.000000      03_09_04                                
 281              (3,9,5)         700.000000       337.642033       357.000000      03_09_05                                
 282              (3,9,6)         700.000000       337.642215       357.000000      03_09_06                                
 283              (3,9,7)         700.000000       337.641002       357.000000      03_09_07                                
 284              (3,9,8)         700.000000       337.638412       357.000000      03_09_08                                
 285              (3,9,9)         700.000000       337.634559       357.000000      03_09_09                                
 286              (3,9,10)        700.000000       337.630024       357.000000      03_09_10                                
 287              (3,10,1)        700.000000       337.658126       357.000000      03_10_01                                
 288              (3,10,2)        700.000000       337.659643       357.000000      03_10_02                                
 289              (3,10,3)        700.000000       337.661631       357.000000      03_10_03                                
 290              (3,10,4)        700.000000       337.663363       357.000000      03_10_04                                
 291              (3,10,5)        700.000000       337.664402       357.000000      03_10_05                                
 292              (3,10,6)        700.000000       337.664546       357.000000      03_10_06                                
 293              (3,10,7)        700.000000       337.663781       357.000000      03_10_07                                
 294              (3,10,8)        700.000000       337.662285       357.000000      03_10_08                                
 295              (3,10,9)        700.000000       337.660471       357.000000      03_10_09                                
 296             (3,10,10)        700.000000       337.659048       357.000000      03_10_10                                
 297              (1,1,1)         200.000000       76.6527642       107.000000      01_01_01                                
 298              (1,1,2)         200.000000       77.0823827       107.000000      01_01_02                                
 299              (1,1,3)         200.000000       77.8973923       107.000000      01_01_03                                
 300              (1,1,4)         200.000000       78.4222189       107.000000      01_01_04                                
 301              (1,1,5)         200.000000       78.6938946       107.000000      01_01_05                                
 302              (1,1,6)         200.000000       78.7267832       107.000000      01_01_06                                
 303              (1,1,7)         200.000000       78.5182026       107.000000      01_01_07                                
 304              (1,1,8)         200.000000       78.0483405       107.000000      01_01_08                                
 305              (1,1,9)         200.000000       77.2746145       107.000000      01_01_09                                
 306              (1,1,10)        200.000000       76.8674125       107.000000      01_01_10                                
 307              (1,2,1)         200.000000       77.8827363       107.000000      01_02_01                                
 308              (1,2,2)         200.000000       78.4922156       107.000000      01_02_02                                
 309              (1,2,3)         200.000000       79.0146684       107.000000      01_02_03                                
 310              (1,2,4)         200.000000       79.3946710       107.000000      01_02_04                                
 311              (1,2,5)         200.000000       79.6105876       107.000000      01_02_05                                
 312              (1,2,6)         200.000000       79.6543829       107.000000      01_02_06                                
 313              (1,2,7)         200.000000       79.5236966       107.000000      01_02_07                                
 314              (1,2,8)         200.000000       79.2211531       107.000000      01_02_08                                
 315              (1,2,9)         200.000000       78.7609429       107.000000      01_02_09                                
 316              (1,2,10)        200.000000       78.1881815       107.000000      01_02_10                                
 317              (1,3,1)         200.000000       79.6286274       107.000000      01_03_01                                
 318              (1,3,2)         200.000000       80.2218115       107.000000      01_03_02                                
 319              (1,3,3)         200.000000       80.6771421       107.000000      01_03_03                                
 320              (1,3,4)         200.000000       81.0002097       107.000000      01_03_04                                
 321              (1,3,5)         200.000000       81.1931984       107.000000      01_03_05                                
 322              (1,3,6)         200.000000       81.2574753       107.000000      01_03_06                                
 323              (1,3,7)         200.000000       81.1937565       107.000000      01_03_07                                
 324              (1,3,8)         200.000000       81.0006639       107.000000      01_03_08                                
 325              (1,3,9)         200.000000       80.6700287       107.000000      01_03_09                                
 326              (1,3,10)        200.000000       80.1733056       107.000000      01_03_10                                
 327              (1,4,1)         200.000000       81.9635951       107.000000      01_04_01                                
 328              (1,4,2)         200.000000       82.4803561       107.000000      01_04_02                                
 329              (1,4,3)         200.000000       82.8494453       107.000000      01_04_03                                
 330              (1,4,4)         200.000000       83.1079482       107.000000      01_04_04                                
 331              (1,4,5)         200.000000       83.2731308       107.000000      01_04_05                                
 332              (1,4,6)         200.000000       83.3552153       107.000000      01_04_06                                
 333              (1,4,7)         200.000000       83.3637721       107.000000      01_04_07                                
 334              (1,4,8)         200.000000       83.3120962       107.000000      01_04_08                                
 335              (1,4,9)         200.000000       83.2224889       107.000000      01_04_09                                
 336              (1,4,10)        200.000000       83.1362556       107.000000      01_04_10                                
 337              (1,5,1)         200.000000       85.2044104       107.000000      01_05_01                                
 338              (1,5,2)         200.000000       85.3142039       107.000000      01_05_02                                
 339              (1,5,3)         200.000000       85.4511649       107.000000      01_05_03                                
 340              (1,5,4)         200.000000       85.5769138       107.000000      01_05_04                                
 341              (1,5,5)         200.000000       85.6739033       107.000000      01_05_05                                
 342              (1,5,6)         200.000000       85.7357573       107.000000      01_05_06                                
 343              (1,5,7)         200.000000       85.7634268       107.000000      01_05_07                                
 344              (1,5,8)         200.000000       85.7637263       107.000000      01_05_08                                
 345              (1,5,9)         200.000000       85.7486064       107.000000      01_05_09                                
 346              (1,5,10)        200.000000       85.7337784       107.000000      01_05_10                                
 347              (1,6,1)         200.000000       87.9951453       107.000000      01_06_01                                
 348              (1,6,2)         200.000000       88.0329896       107.000000      01_06_02                                
 349              (1,6,3)         200.000000       88.0923334       107.000000      01_06_03                                
 350              (1,6,4)         200.000000       88.1559357       107.000000      01_06_04                                
 351              (1,6,5)         200.000000       88.2105296       107.000000      01_06_05                                
 352              (1,6,6)         200.000000       88.2485324       107.000000      01_06_06                                
 353              (1,6,7)         200.000000       88.2681357       107.000000      01_06_07                                
 354              (1,6,8)         200.000000       88.2725733       107.000000      01_06_08                                
 355              (1,6,9)         200.000000       88.2686000       107.000000      01_06_09                                
 356              (1,6,10)        200.000000       88.2638572       107.000000      01_06_10                                
 357              (1,7,1)         200.000000       90.6369665       107.000000      01_07_01                                
 358              (1,7,2)         200.000000       90.6678888       107.000000      01_07_02                                
 359              (1,7,3)         200.000000       90.7186825       107.000000      01_07_03                                
 360              (1,7,4)         200.000000       90.7733885       107.000000      01_07_04                                
 361              (1,7,5)         200.000000       90.8160792       107.000000      01_07_05                                
 362              (1,7,6)         200.000000       90.8375770       107.000000      01_07_06                                
 363              (1,7,7)         200.000000       90.8362376       107.000000      01_07_07                                
 364              (1,7,8)         200.000000       90.8178156       107.000000      01_07_08                                
 365              (1,7,9)         200.000000       90.7945393       107.000000      01_07_09                                
 366              (1,7,10)        200.000000       90.7786914       107.000000      01_07_10                                
 367              (1,8,1)         200.000000       93.1700534       107.000000      01_08_01                                
 368              (1,8,2)         200.000000       93.2336335       107.000000      01_08_02                                
 369              (1,8,3)         200.000000       93.3391768       107.000000      01_08_03                                
 370              (1,8,4)         200.000000       93.4488076       107.000000      01_08_04                                
 371              (1,8,5)         200.000000       93.5164264       107.000000      01_08_05                                
 372              (1,8,6)         200.000000       93.5280603       107.000000      01_08_06                                
 373              (1,8,7)         200.000000       93.4827603       107.000000      01_08_07                                
 374              (1,8,8)         200.000000       93.3925634       107.000000      01_08_08                                
 375              (1,8,9)         200.000000       93.3014873       107.000000      01_08_09                                
 376              (1,8,10)        200.000000       93.2456551       107.000000      01_08_10                                
 377              (1,9,1)         200.000000       95.4757644       107.000000      01_09_01                                
 378              (1,9,2)         200.000000       95.6499035       107.000000      01_09_02                                
 379              (1,9,3)         200.000000       95.9607409       107.000000      01_09_03                                
 380              (1,9,4)         200.000000       96.3099261       107.000000      01_09_04                                
 381              (1,9,5)         200.000000       96.4585578       107.000000      01_09_05                                
 382              (1,9,6)         200.000000       96.4641579       107.000000      01_09_06                                
 383              (1,9,7)         200.000000       96.3266218       107.000000      01_09_07                                
 384              (1,9,8)         200.000000       95.9884042       107.000000      01_09_08                                
 385              (1,9,9)         200.000000       95.6860380       107.000000      01_09_09                                
 386              (1,9,10)        200.000000       95.5164733       107.000000      01_09_10                                
 387              (1,10,1)        200.000000       97.1227670       107.000000      01_10_01                                
 388              (1,10,2)        200.000000       97.5458158       107.000000      01_10_02                                
 389              (1,10,3)        200.000000       98.4546422       107.000000      01_10_03                                
 390              (1,10,8)        200.000000       98.4666483       107.000000      01_10_08                                
 391              (1,10,9)        200.000000       97.5659211       107.000000      01_10_09                                
 392             (1,10,10)        200.000000       97.1469794       107.000000      01_10_10                                
 393              (3,1,1)         700.000000       336.954791       357.000000      03_01_01                                
 394              (3,1,2)         700.000000       336.953672       357.000000      03_01_02                                
 395              (3,1,3)         700.000000       336.952455       357.000000      03_01_03                                
 396              (3,1,4)         700.000000       336.951656       357.000000      03_01_04                                
 397              (3,1,5)         700.000000       336.951445       357.000000      03_01_05                                
 398              (3,1,6)         700.000000       336.951841       357.000000      03_01_06                                
 399              (3,1,7)         700.000000       336.952803       357.000000      03_01_07                                
 400              (3,1,8)         700.000000       336.954229       357.000000      03_01_08                                
 401              (3,1,9)         700.000000       336.955885       357.000000      03_01_09                                
 402              (3,1,10)        700.000000       336.957223       357.000000      03_01_10                                
 403              (3,2,1)         700.000000       336.979785       357.000000      03_02_01                                
 404              (3,2,2)         700.000000       336.975310       357.000000      03_02_02                                
 405              (3,2,3)         700.000000       336.972536       357.000000      03_02_03                                
 406              (3,2,4)         700.000000       336.971356       357.000000      03_02_04                                
 407              (3,2,5)         700.000000       336.971191       357.000000      03_02_05                                
 408              (3,2,6)         700.000000       336.971726       357.000000      03_02_06                                
 409              (3,2,7)         700.000000       336.972898       357.000000      03_02_07                                
 410              (3,2,8)         700.000000       336.974895       357.000000      03_02_08                                
 411              (3,2,9)         700.000000       336.978182       357.000000      03_02_09                                
 412              (3,2,10)        700.000000       336.982804       357.000000      03_02_10                                
 413              (3,3,1)         700.000000       337.039517       357.000000      03_03_01                                
 414              (3,3,2)         700.000000       337.035252       357.000000      03_03_02                                
 415              (3,3,3)         700.000000       337.032531       357.000000      03_03_03                                
 416              (3,3,4)         700.000000       337.031399       357.000000      03_03_04                                
 417              (3,3,5)         700.000000       337.031331       357.000000      03_03_05                                
 418              (3,3,6)         700.000000       337.032008       357.000000      03_03_06                                
 419              (3,3,7)         700.000000       337.033350       357.000000      03_03_07                                
 420              (3,3,8)         700.000000       337.035513       357.000000      03_03_08                                
 421              (3,3,9)         700.000000       337.038851       357.000000      03_03_09                                
 422              (3,3,10)        700.000000       337.043211       357.000000      03_03_10                                
 423              (3,4,1)         700.000000       337.128867       357.000000      03_04_01                                
 424              (3,4,2)         700.000000       337.125846       357.000000      03_04_02                                
 425              (3,4,3)         700.000000       337.123988       357.000000      03_04_03                                
 426              (3,4,4)         700.000000       337.123331       357.000000      03_04_04                                
 427              (3,4,5)         700.000000       337.123500       357.000000      03_04_05                                
 428              (3,4,6)         700.000000       337.124254       357.000000      03_04_06                                
 429              (3,4,7)         700.000000       337.125514       357.000000      03_04_07                                
 430              (3,4,8)         700.000000       337.127348       357.000000      03_04_08                                
 431              (3,4,9)         700.000000       337.129908       357.000000      03_04_09                                
 432              (3,4,10)        700.000000       337.132931       357.000000      03_04_10                                
 433              (3,5,1)         700.000000       337.238066       357.000000      03_05_01                                
 434              (3,5,2)         700.000000       337.236768       357.000000      03_05_02                                
 435              (3,5,3)         700.000000       337.236080       357.000000      03_05_03                                
 436              (3,5,4)         700.000000       337.236035       357.000000      03_05_04                                
 437              (3,5,5)         700.000000       337.236424       357.000000      03_05_05                                
 438              (3,5,6)         700.000000       337.237086       357.000000      03_05_06                                
 439              (3,5,7)         700.000000       337.237945       357.000000      03_05_07                                
 440              (3,5,8)         700.000000       337.239004       357.000000      03_05_08                                
 441              (3,5,9)         700.000000       337.240308       357.000000      03_05_09                                
 442              (3,5,10)        700.000000       337.241715       357.000000      03_05_10                                
 443              (3,6,1)         700.000000       337.355050       357.000000      03_06_01                                
 444              (3,6,2)         700.000000       337.355533       357.000000      03_06_02                                
 445              (3,6,3)         700.000000       337.356217       357.000000      03_06_03                                
 446              (3,6,4)         700.000000       337.356956       357.000000      03_06_04                                
 447              (3,6,5)         700.000000       337.357629       357.000000      03_06_05                                
 448              (3,6,6)         700.000000       337.358136       357.000000      03_06_06                                
 449              (3,6,7)         700.000000       337.358419       357.000000      03_06_07                                
 450              (3,6,8)         700.000000       337.358461       357.000000      03_06_08                                
 451              (3,6,9)         700.000000       337.358279       357.000000      03_06_09                                
 452              (3,6,10)        700.000000       337.357963       357.000000      03_06_10                                
 453              (3,7,1)         700.000000       337.467347       357.000000      03_07_01                                
 454              (3,7,2)         700.000000       337.469593       357.000000      03_07_02                                
 455              (3,7,3)         700.000000       337.471723       357.000000      03_07_03                                
 456              (3,7,4)         700.000000       337.473350       357.000000      03_07_04                                
 457              (3,7,5)         700.000000       337.474379       357.000000      03_07_05                                
 458              (3,7,6)         700.000000       337.474743       357.000000      03_07_06                                
 459              (3,7,7)         700.000000       337.474402       357.000000      03_07_07                                
 460              (3,7,8)         700.000000       337.473345       357.000000      03_07_08                                
 461              (3,7,9)         700.000000       337.471602       357.000000      03_07_09                                
 462              (3,7,10)        700.000000       337.469526       357.000000      03_07_10                                
 463              (3,8,1)         700.000000       337.562534       357.000000      03_08_01                                
 464              (3,8,2)         700.000000       337.566398       357.000000      03_08_02                                
 465              (3,8,3)         700.000000       337.569869       357.000000      03_08_03                                
 466              (3,8,4)         700.000000       337.572348       357.000000      03_08_04                                
 467              (3,8,5)         700.000000       337.573741       357.000000      03_08_05                                
 468              (3,8,6)         700.000000       337.573995       357.000000      03_08_06                                
 469              (3,8,7)         700.000000       337.573085       357.000000      03_08_07                                
 470              (3,8,8)         700.000000       337.571013       357.000000      03_08_08                                
 471              (3,8,9)         700.000000       337.567832       357.000000      03_08_09                                
 472              (3,8,10)        700.000000       337.564115       357.000000      03_08_10                                
 473              (3,9,1)         700.000000       337.628868       357.000000      03_09_01                                
 474              (3,9,2)         700.000000       337.633520       357.000000      03_09_02                                
 475              (3,9,3)         700.000000       337.637590       357.000000      03_09_03                                
 476              (3,9,4)         700.000000       337.640475       357.000000      03_09_04                                
 477              (3,9,5)         700.000000       337.642033       357.000000      03_09_05                                
 478              (3,9,6)         700.000000       337.642215       357.000000      03_09_06                                
 479              (3,9,7)         700.000000       337.641002       357.000000      03_09_07                                
 480              (3,9,8)         700.000000       337.638412       357.000000      03_09_08                                
 481              (3,9,9)         700.000000       337.634559       357.000000      03_09_09                                
 482              (3,9,10)        700.000000       337.630024       357.000000      03_09_10                                
 483              (3,10,1)        700.000000       337.658126       357.000000      03_10_01                                
 484              (3,10,2)        700.000000       337.659643       357.000000      03_10_02                                
 485              (3,10,3)        700.000000       337.661631       357.000000      03_10_03                                
 486              (3,10,4)        700.000000       337.663363       357.000000      03_10_04                                
 487              (3,10,5)        700.000000       337.664402       357.000000      03_10_05                                
 488              (3,10,6)        700.000000       337.664546       357.000000      03_10_06                                
 489              (3,10,7)        700.000000       337.663781       357.000000      03_10_07                                
 490              (3,10,8)        700.000000       337.662285       357.000000      03_10_08                                
 491              (3,10,9)        700.000000       337.660471       357.000000      03_10_09                                
 492             (3,10,10)        700.000000       337.659048       357.000000      03_10_10                                
 ---------------------------------------------------------------------------------------------------------------------------



 CSUB PACKAGE CALCULATED INITIAL DELAY INTERBED STRESSES
 --------------------------------------------------------------------------------------------------------------------------------------
 INTERBED                                                                     PRECONSOLIDATION                                         
 NUMBER            CELLID        DELAY CELL GEOSTATIC STRESS EFFECTIVE STRESS      STRESS      BOUNDNAME                               
 --------------------------------------------------------------------------------------------------------------------------------------
 297              (1,1,1)        1           188.514256       70.9098924       101.257128      01_01_01                                
                                 2           188.816513       71.0610206       101.408256                                              
                                 3           189.118769       71.2121488       101.559385                                              
                                 4           189.421026       71.3632770       101.710513                                              
                                 5           189.723282       71.5144052       101.861641                                              
                                 6           190.025538       71.6655334       102.012769                                              
                                 7           190.327795       71.8166616       102.163897                                              
                                 8           190.630051       71.9677899       102.315026                                              
                                 9           190.932308       72.1189181       102.466154                                              
                                 10          191.234564       72.2700463       102.617282                                              
                                 11          191.536821       72.4211745       102.768410                                              
                                 12          191.839077       72.5723027       102.919538                                              
                                 13          192.141333       72.7234309       103.070667                                              
                                 14          192.443590       72.8745591       103.221795                                              
                                 15          192.745846       73.0256873       103.372923                                              
                                 16          193.048103       73.1768155       103.524051                                              
                                 17          193.350359       73.3279437       103.675179                                              
                                 18          193.652615       73.4790719       103.826308                                              
                                 19          193.954872       73.6302001       103.977436                                              
                                 20          194.257128       73.7813283       104.128564                                              
                                 21          194.559385       73.9324565       104.279692                                              
                                 22          194.861641       74.0835847       104.430821                                              
                                 23          195.163897       74.2347129       104.581949                                              
                                 24          195.466154       74.3858411       104.733077                                              
                                 25          195.768410       74.5369693       104.884205                                              
                                 26          196.070667       74.6880975       105.035333                                              
                                 27          196.372923       74.8392257       105.186462                                              
                                 28          196.675179       74.9903540       105.337590                                              
                                 29          196.977436       75.1414822       105.488718                                              
                                 30          197.279692       75.2926104       105.639846                                              
                                 31          197.581949       75.4437386       105.790974                                              
                                 32          197.884205       75.5948668       105.942103                                              
                                 33          198.186462       75.7459950       106.093231                                              
                                 34          198.488718       75.8971232       106.244359                                              
                                 35          198.790974       76.0482514       106.395487                                              
                                 36          199.093231       76.1993796       106.546615                                              
                                 37          199.395487       76.3505078       106.697744                                              
                                 38          199.697744       76.5016360       106.848872                                              
                                 39          200.000000       76.6527642       107.000000                                              
 298              (1,1,2)        1           188.514256       71.3395109       101.257128      01_01_02                                
                                 2           188.816513       71.4906391       101.408256                                              
                                 3           189.118769       71.6417673       101.559385                                              
                                 4           189.421026       71.7928955       101.710513                                              
                                 5           189.723282       71.9440237       101.861641                                              
                                 6           190.025538       72.0951520       102.012769                                              
                                 7           190.327795       72.2462802       102.163897                                              
                                 8           190.630051       72.3974084       102.315026                                              
                                 9           190.932308       72.5485366       102.466154                                              
                                 10          191.234564       72.6996648       102.617282                                              
                                 11          191.536821       72.8507930       102.768410                                              
                                 12          191.839077       73.0019212       102.919538                                              
                                 13          192.141333       73.1530494       103.070667                                              
                                 14          192.443590       73.3041776       103.221795                                              
                                 15          192.745846       73.4553058       103.372923                                              
                                 16          193.048103       73.6064340       103.524051                                              
                                 17          193.350359       73.7575622       103.675179                                              
                                 18          193.652615       73.9086904       103.826308                                              
                                 19          193.954872       74.0598186       103.977436                                              
                                 20          194.257128       74.2109468       104.128564                                              
                                 21          194.559385       74.3620750       104.279692                                              
                                 22          194.861641       74.5132032       104.430821                                              
                                 23          195.163897       74.6643314       104.581949                                              
                                 24          195.466154       74.8154596       104.733077                                              
                                 25          195.768410       74.9665879       104.884205                                              
                                 26          196.070667       75.1177161       105.035333                                              
                                 27          196.372923       75.2688443       105.186462                                              
                                 28          196.675179       75.4199725       105.337590                                              
                                 29          196.977436       75.5711007       105.488718                                              
                                 30          197.279692       75.7222289       105.639846                                              
                                 31          197.581949       75.8733571       105.790974                                              
                                 32          197.884205       76.0244853       105.942103                                              
                                 33          198.186462       76.1756135       106.093231                                              
                                 34          198.488718       76.3267417       106.244359                                              
                                 35          198.790974       76.4778699       106.395487                                              
                                 36          199.093231       76.6289981       106.546615                                              
                                 37          199.395487       76.7801263       106.697744                                              
                                 38          199.697744       76.9312545       106.848872                                              
                                 39          200.000000       77.0823827       107.000000                                              
 299              (1,1,3)        1           188.514256       72.1545205       101.257128      01_01_03                                
                                 2           188.816513       72.3056487       101.408256                                              
                                 3           189.118769       72.4567769       101.559385                                              
                                 4           189.421026       72.6079052       101.710513                                              
                                 5           189.723282       72.7590334       101.861641                                              
                                 6           190.025538       72.9101616       102.012769                                              
                                 7           190.327795       73.0612898       102.163897                                              
                                 8           190.630051       73.2124180       102.315026                                              
                                 9           190.932308       73.3635462       102.466154                                              
                                 10          191.234564       73.5146744       102.617282                                              
                                 11          191.536821       73.6658026       102.768410                                              
                                 12          191.839077       73.8169308       102.919538                                              
                                 13          192.141333       73.9680590       103.070667                                              
                                 14          192.443590       74.1191872       103.221795                                              
                                 15          192.745846       74.2703154       103.372923                                              
                                 16          193.048103       74.4214436       103.524051                                              
                                 17          193.350359       74.5725718       103.675179                                              
                                 18          193.652615       74.7237000       103.826308                                              
                                 19          193.954872       74.8748282       103.977436                                              
                                 20          194.257128       75.0259564       104.128564                                              
                                 21          194.559385       75.1770846       104.279692                                              
                                 22          194.861641       75.3282128       104.430821                                              
                                 23          195.163897       75.4793410       104.581949                                              
                                 24          195.466154       75.6304693       104.733077                                              
                                 25          195.768410       75.7815975       104.884205                                              
                                 26          196.070667       75.9327257       105.035333                                              
                                 27          196.372923       76.0838539       105.186462                                              
                                 28          196.675179       76.2349821       105.337590                                              
                                 29          196.977436       76.3861103       105.488718                                              
                                 30          197.279692       76.5372385       105.639846                                              
                                 31          197.581949       76.6883667       105.790974                                              
                                 32          197.884205       76.8394949       105.942103                                              
                                 33          198.186462       76.9906231       106.093231                                              
                                 34          198.488718       77.1417513       106.244359                                              
                                 35          198.790974       77.2928795       106.395487                                              
                                 36          199.093231       77.4440077       106.546615                                              
                                 37          199.395487       77.5951359       106.697744                                              
                                 38          199.697744       77.7462641       106.848872                                              
                                 39          200.000000       77.8973923       107.000000                                              
 300              (1,1,4)        1           188.514256       72.6793471       101.257128      01_01_04                                
                                 2           188.816513       72.8304753       101.408256                                              
                                 3           189.118769       72.9816035       101.559385                                              
                                 4           189.421026       73.1327317       101.710513                                              
                                 5           189.723282       73.2838599       101.861641                                              
                                 6           190.025538       73.4349881       102.012769                                              
                                 7           190.327795       73.5861163       102.163897                                              
                                 8           190.630051       73.7372445       102.315026                                              
                                 9           190.932308       73.8883727       102.466154                                              
                                 10          191.234564       74.0395010       102.617282                                              
                                 11          191.536821       74.1906292       102.768410                                              
                                 12          191.839077       74.3417574       102.919538                                              
                                 13          192.141333       74.4928856       103.070667                                              
                                 14          192.443590       74.6440138       103.221795                                              
                                 15          192.745846       74.7951420       103.372923                                              
                                 16          193.048103       74.9462702       103.524051                                              
                                 17          193.350359       75.0973984       103.675179                                              
                                 18          193.652615       75.2485266       103.826308                                              
                                 19          193.954872       75.3996548       103.977436                                              
                                 20          194.257128       75.5507830       104.128564                                              
                                 21          194.559385       75.7019112       104.279692                                              
                                 22          194.861641       75.8530394       104.430821                                              
                                 23          195.163897       76.0041676       104.581949                                              
                                 24          195.466154       76.1552958       104.733077                                              
                                 25          195.768410       76.3064240       104.884205                                              
                                 26          196.070667       76.4575522       105.035333                                              
                                 27          196.372923       76.6086804       105.186462                                              
                                 28          196.675179       76.7598086       105.337590                                              
                                 29          196.977436       76.9109368       105.488718                                              
                                 30          197.279692       77.0620651       105.639846                                              
                                 31          197.581949       77.2131933       105.790974                                              
                                 32          197.884205       77.3643215       105.942103                                              
                                 33          198.186462       77.5154497       106.093231                                              
                                 34          198.488718       77.6665779       106.244359                                              
                                 35          198.790974       77.8177061       106.395487                                              
                                 36          199.093231       77.9688343       106.546615                                              
                                 37          199.395487       78.1199625       106.697744                                              
                                 38          199.697744       78.2710907       106.848872                                              
                                 39          200.000000       78.4222189       107.000000                                              
 301              (1,1,5)        1           188.514256       72.9510228       101.257128      01_01_05                                
                                 2           188.816513       73.1021510       101.408256                                              
                                 3           189.118769       73.2532792       101.559385                                              
                                 4           189.421026       73.4044075       101.710513                                              
                                 5           189.723282       73.5555357       101.861641                                              
                                 6           190.025538       73.7066639       102.012769                                              
                                 7           190.327795       73.8577921       102.163897                                              
                                 8           190.630051       74.0089203       102.315026                                              
                                 9           190.932308       74.1600485       102.466154                                              
                                 10          191.234564       74.3111767       102.617282                                              
                                 11          191.536821       74.4623049       102.768410                                              
                                 12          191.839077       74.6134331       102.919538                                              
                                 13          192.141333       74.7645613       103.070667                                              
                                 14          192.443590       74.9156895       103.221795                                              
                                 15          192.745846       75.0668177       103.372923                                              
                                 16          193.048103       75.2179459       103.524051                                              
                                 17          193.350359       75.3690741       103.675179                                              
                                 18          193.652615       75.5202023       103.826308                                              
                                 19          193.954872       75.6713305       103.977436                                              
                                 20          194.257128       75.8224587       104.128564                                              
                                 21          194.559385       75.9735869       104.279692                                              
                                 22          194.861641       76.1247151       104.430821                                              
                                 23          195.163897       76.2758434       104.581949                                              
                                 24          195.466154       76.4269716       104.733077                                              
                                 25          195.768410       76.5780998       104.884205                                              
                                 26          196.070667       76.7292280       105.035333                                              
                                 27          196.372923       76.8803562       105.186462                                              
                                 28          196.675179       77.0314844       105.337590                                              
                                 29          196.977436       77.1826126       105.488718                                              
                                 30          197.279692       77.3337408       105.639846                                              
                                 31          197.581949       77.4848690       105.790974                                              
                                 32          197.884205       77.6359972       105.942103                                              
                                 33          198.186462       77.7871254       106.093231                                              
                                 34          198.488718       77.9382536       106.244359                                              
                                 35          198.790974       78.0893818       106.395487                                              
                                 36          199.093231       78.2405100       106.546615                                              
                                 37          199.395487       78.3916382       106.697744                                              
                                 38          199.697744       78.5427664       106.848872                                              
                                 39          200.000000       78.6938946       107.000000                                              
 302              (1,1,6)        1           188.514256       72.9839114       101.257128      01_01_06                                
                                 2           188.816513       73.1350396       101.408256                                              
                                 3           189.118769       73.2861679       101.559385                                              
                                 4           189.421026       73.4372961       101.710513                                              
                                 5           189.723282       73.5884243       101.861641                                              
                                 6           190.025538       73.7395525       102.012769                                              
                                 7           190.327795       73.8906807       102.163897                                              
                                 8           190.630051       74.0418089       102.315026                                              
                                 9           190.932308       74.1929371       102.466154                                              
                                 10          191.234564       74.3440653       102.617282                                              
                                 11          191.536821       74.4951935       102.768410                                              
                                 12          191.839077       74.6463217       102.919538                                              
                                 13          192.141333       74.7974499       103.070667                                              
                                 14          192.443590       74.9485781       103.221795                                              
                                 15          192.745846       75.0997063       103.372923                                              
                                 16          193.048103       75.2508345       103.524051                                              
                                 17          193.350359       75.4019627       103.675179                                              
                                 18          193.652615       75.5530909       103.826308                                              
                                 19          193.954872       75.7042191       103.977436                                              
                                 20          194.257128       75.8553473       104.128564                                              
                                 21          194.559385       76.0064755       104.279692                                              
                                 22          194.861641       76.1576038       104.430821                                              
                                 23          195.163897       76.3087320       104.581949                                              
                                 24          195.466154       76.4598602       104.733077                                              
                                 25          195.768410       76.6109884       104.884205                                              
                                 26          196.070667       76.7621166       105.035333                                              
                                 27          196.372923       76.9132448       105.186462                                              
                                 28          196.675179       77.0643730       105.337590                                              
                                 29          196.977436       77.2155012       105.488718                                              
                                 30          197.279692       77.3666294       105.639846                                              
                                 31          197.581949       77.5177576       105.790974                                              
                                 32          197.884205       77.6688858       105.942103                                              
                                 33          198.186462       77.8200140       106.093231                                              
                                 34          198.488718       77.9711422       106.244359                                              
                                 35          198.790974       78.1222704       106.395487                                              
                                 36          199.093231       78.2733986       106.546615                                              
                                 37          199.395487       78.4245268       106.697744                                              
                                 38          199.697744       78.5756550       106.848872                                              
                                 39          200.000000       78.7267832       107.000000                                              
 303              (1,1,7)        1           188.514256       72.7753308       101.257128      01_01_07                                
                                 2           188.816513       72.9264590       101.408256                                              
                                 3           189.118769       73.0775872       101.559385                                              
                                 4           189.421026       73.2287154       101.710513                                              
                                 5           189.723282       73.3798436       101.861641                                              
                                 6           190.025538       73.5309718       102.012769                                              
                                 7           190.327795       73.6821000       102.163897                                              
                                 8           190.630051       73.8332283       102.315026                                              
                                 9           190.932308       73.9843565       102.466154                                              
                                 10          191.234564       74.1354847       102.617282                                              
                                 11          191.536821       74.2866129       102.768410                                              
                                 12          191.839077       74.4377411       102.919538                                              
                                 13          192.141333       74.5888693       103.070667                                              
                                 14          192.443590       74.7399975       103.221795                                              
                                 15          192.745846       74.8911257       103.372923                                              
                                 16          193.048103       75.0422539       103.524051                                              
                                 17          193.350359       75.1933821       103.675179                                              
                                 18          193.652615       75.3445103       103.826308                                              
                                 19          193.954872       75.4956385       103.977436                                              
                                 20          194.257128       75.6467667       104.128564                                              
                                 21          194.559385       75.7978949       104.279692                                              
                                 22          194.861641       75.9490231       104.430821                                              
                                 23          195.163897       76.1001513       104.581949                                              
                                 24          195.466154       76.2512795       104.733077                                              
                                 25          195.768410       76.4024077       104.884205                                              
                                 26          196.070667       76.5535359       105.035333                                              
                                 27          196.372923       76.7046641       105.186462                                              
                                 28          196.675179       76.8557924       105.337590                                              
                                 29          196.977436       77.0069206       105.488718                                              
                                 30          197.279692       77.1580488       105.639846                                              
                                 31          197.581949       77.3091770       105.790974                                              
                                 32          197.884205       77.4603052       105.942103                                              
                                 33          198.186462       77.6114334       106.093231                                              
                                 34          198.488718       77.7625616       106.244359                                              
                                 35          198.790974       77.9136898       106.395487                                              
                                 36          199.093231       78.0648180       106.546615                                              
                                 37          199.395487       78.2159462       106.697744                                              
                                 38          199.697744       78.3670744       106.848872                                              
                                 39          200.000000       78.5182026       107.000000                                              
 304              (1,1,8)        1           188.514256       72.3054687       101.257128      01_01_08                                
                                 2           188.816513       72.4565969       101.408256                                              
                                 3           189.118769       72.6077251       101.559385                                              
                                 4           189.421026       72.7588533       101.710513                                              
                                 5           189.723282       72.9099815       101.861641                                              
                                 6           190.025538       73.0611097       102.012769                                              
                                 7           190.327795       73.2122379       102.163897                                              
                                 8           190.630051       73.3633661       102.315026                                              
                                 9           190.932308       73.5144943       102.466154                                              
                                 10          191.234564       73.6656226       102.617282                                              
                                 11          191.536821       73.8167508       102.768410                                              
                                 12          191.839077       73.9678790       102.919538                                              
                                 13          192.141333       74.1190072       103.070667                                              
                                 14          192.443590       74.2701354       103.221795                                              
                                 15          192.745846       74.4212636       103.372923                                              
                                 16          193.048103       74.5723918       103.524051                                              
                                 17          193.350359       74.7235200       103.675179                                              
                                 18          193.652615       74.8746482       103.826308                                              
                                 19          193.954872       75.0257764       103.977436                                              
                                 20          194.257128       75.1769046       104.128564                                              
                                 21          194.559385       75.3280328       104.279692                                              
                                 22          194.861641       75.4791610       104.430821                                              
                                 23          195.163897       75.6302892       104.581949                                              
                                 24          195.466154       75.7814174       104.733077                                              
                                 25          195.768410       75.9325456       104.884205                                              
                                 26          196.070667       76.0836738       105.035333                                              
                                 27          196.372923       76.2348020       105.186462                                              
                                 28          196.675179       76.3859302       105.337590                                              
                                 29          196.977436       76.5370585       105.488718                                              
                                 30          197.279692       76.6881867       105.639846                                              
                                 31          197.581949       76.8393149       105.790974                                              
                                 32          197.884205       76.9904431       105.942103                                              
                                 33          198.186462       77.1415713       106.093231                                              
                                 34          198.488718       77.2926995       106.244359                                              
                                 35          198.790974       77.4438277       106.395487                                              
                                 36          199.093231       77.5949559       106.546615                                              
                                 37          199.395487       77.7460841       106.697744                                              
                                 38          199.697744       77.8972123       106.848872                                              
                                 39          200.000000       78.0483405       107.000000                                              
 305              (1,1,9)        1           188.514256       71.5317427       101.257128      01_01_09                                
                                 2           188.816513       71.6828709       101.408256                                              
                                 3           189.118769       71.8339991       101.559385                                              
                                 4           189.421026       71.9851273       101.710513                                              
                                 5           189.723282       72.1362555       101.861641                                              
                                 6           190.025538       72.2873838       102.012769                                              
                                 7           190.327795       72.4385120       102.163897                                              
                                 8           190.630051       72.5896402       102.315026                                              
                                 9           190.932308       72.7407684       102.466154                                              
                                 10          191.234564       72.8918966       102.617282                                              
                                 11          191.536821       73.0430248       102.768410                                              
                                 12          191.839077       73.1941530       102.919538                                              
                                 13          192.141333       73.3452812       103.070667                                              
                                 14          192.443590       73.4964094       103.221795                                              
                                 15          192.745846       73.6475376       103.372923                                              
                                 16          193.048103       73.7986658       103.524051                                              
                                 17          193.350359       73.9497940       103.675179                                              
                                 18          193.652615       74.1009222       103.826308                                              
                                 19          193.954872       74.2520504       103.977436                                              
                                 20          194.257128       74.4031786       104.128564                                              
                                 21          194.559385       74.5543068       104.279692                                              
                                 22          194.861641       74.7054350       104.430821                                              
                                 23          195.163897       74.8565632       104.581949                                              
                                 24          195.466154       75.0076914       104.733077                                              
                                 25          195.768410       75.1588196       104.884205                                              
                                 26          196.070667       75.3099479       105.035333                                              
                                 27          196.372923       75.4610761       105.186462                                              
                                 28          196.675179       75.6122043       105.337590                                              
                                 29          196.977436       75.7633325       105.488718                                              
                                 30          197.279692       75.9144607       105.639846                                              
                                 31          197.581949       76.0655889       105.790974                                              
                                 32          197.884205       76.2167171       105.942103                                              
                                 33          198.186462       76.3678453       106.093231                                              
                                 34          198.488718       76.5189735       106.244359                                              
                                 35          198.790974       76.6701017       106.395487                                              
                                 36          199.093231       76.8212299       106.546615                                              
                                 37          199.395487       76.9723581       106.697744                                              
                                 38          199.697744       77.1234863       106.848872                                              
                                 39          200.000000       77.2746145       107.000000                                              
 306              (1,1,10)       1           188.514256       71.1245407       101.257128      01_01_10                                
                                 2           188.816513       71.2756690       101.408256                                              
                                 3           189.118769       71.4267972       101.559385                                              
                                 4           189.421026       71.5779254       101.710513                                              
                                 5           189.723282       71.7290536       101.861641                                              
                                 6           190.025538       71.8801818       102.012769                                              
                                 7           190.327795       72.0313100       102.163897                                              
                                 8           190.630051       72.1824382       102.315026                                              
                                 9           190.932308       72.3335664       102.466154                                              
                                 10          191.234564       72.4846946       102.617282                                              
                                 11          191.536821       72.6358228       102.768410                                              
                                 12          191.839077       72.7869510       102.919538                                              
                                 13          192.141333       72.9380792       103.070667                                              
                                 14          192.443590       73.0892074       103.221795                                              
                                 15          192.745846       73.2403356       103.372923                                              
                                 16          193.048103       73.3914638       103.524051                                              
                                 17          193.350359       73.5425920       103.675179                                              
                                 18          193.652615       73.6937202       103.826308                                              
                                 19          193.954872       73.8448484       103.977436                                              
                                 20          194.257128       73.9959766       104.128564                                              
                                 21          194.559385       74.1471049       104.279692                                              
                                 22          194.861641       74.2982331       104.430821                                              
                                 23          195.163897       74.4493613       104.581949                                              
                                 24          195.466154       74.6004895       104.733077                                              
                                 25          195.768410       74.7516177       104.884205                                              
                                 26          196.070667       74.9027459       105.035333                                              
                                 27          196.372923       75.0538741       105.186462                                              
                                 28          196.675179       75.2050023       105.337590                                              
                                 29          196.977436       75.3561305       105.488718                                              
                                 30          197.279692       75.5072587       105.639846                                              
                                 31          197.581949       75.6583869       105.790974                                              
                                 32          197.884205       75.8095151       105.942103                                              
                                 33          198.186462       75.9606433       106.093231                                              
                                 34          198.488718       76.1117715       106.244359                                              
                                 35          198.790974       76.2628997       106.395487                                              
                                 36          199.093231       76.4140279       106.546615                                              
                                 37          199.395487       76.5651561       106.697744                                              
                                 38          199.697744       76.7162843       106.848872                                              
                                 39          200.000000       76.8674125       107.000000                                              
 307              (1,2,1)        1           188.514256       72.1398645       101.257128      01_02_01                                
                                 2           188.816513       72.2909927       101.408256                                              
                                 3           189.118769       72.4421209       101.559385                                              
                                 4           189.421026       72.5932491       101.710513                                              
                                 5           189.723282       72.7443773       101.861641                                              
                                 6           190.025538       72.8955055       102.012769                                              
                                 7           190.327795       73.0466337       102.163897                                              
                                 8           190.630051       73.1977619       102.315026                                              
                                 9           190.932308       73.3488901       102.466154                                              
                                 10          191.234564       73.5000183       102.617282                                              
                                 11          191.536821       73.6511465       102.768410                                              
                                 12          191.839077       73.8022747       102.919538                                              
                                 13          192.141333       73.9534029       103.070667                                              
                                 14          192.443590       74.1045312       103.221795                                              
                                 15          192.745846       74.2556594       103.372923                                              
                                 16          193.048103       74.4067876       103.524051                                              
                                 17          193.350359       74.5579158       103.675179                                              
                                 18          193.652615       74.7090440       103.826308                                              
                                 19          193.954872       74.8601722       103.977436                                              
                                 20          194.257128       75.0113004       104.128564                                              
                                 21          194.559385       75.1624286       104.279692                                              
                                 22          194.861641       75.3135568       104.430821                                              
                                 23          195.163897       75.4646850       104.581949                                              
                                 24          195.466154       75.6158132       104.733077                                              
                                 25          195.768410       75.7669414       104.884205                                              
                                 26          196.070667       75.9180696       105.035333                                              
                                 27          196.372923       76.0691978       105.186462                                              
                                 28          196.675179       76.2203260       105.337590                                              
                                 29          196.977436       76.3714542       105.488718                                              
                                 30          197.279692       76.5225824       105.639846                                              
                                 31          197.581949       76.6737106       105.790974                                              
                                 32          197.884205       76.8248388       105.942103                                              
                                 33          198.186462       76.9759671       106.093231                                              
                                 34          198.488718       77.1270953       106.244359                                              
                                 35          198.790974       77.2782235       106.395487                                              
                                 36          199.093231       77.4293517       106.546615                                              
                                 37          199.395487       77.5804799       106.697744                                              
                                 38          199.697744       77.7316081       106.848872                                              
                                 39          200.000000       77.8827363       107.000000                                              
 308              (1,2,2)        1           188.514256       72.7493439       101.257128      01_02_02                                
                                 2           188.816513       72.9004721       101.408256                                              
                                 3           189.118769       73.0516003       101.559385                                              
                                 4           189.421026       73.2027285       101.710513                                              
                                 5           189.723282       73.3538567       101.861641                                              
                                 6           190.025538       73.5049849       102.012769                                              
                                 7           190.327795       73.6561131       102.163897                                              
                                 8           190.630051       73.8072413       102.315026                                              
                                 9           190.932308       73.9583695       102.466154                                              
                                 10          191.234564       74.1094977       102.617282                                              
                                 11          191.536821       74.2606259       102.768410                                              
                                 12          191.839077       74.4117541       102.919538                                              
                                 13          192.141333       74.5628823       103.070667                                              
                                 14          192.443590       74.7140105       103.221795                                              
                                 15          192.745846       74.8651387       103.372923                                              
                                 16          193.048103       75.0162669       103.524051                                              
                                 17          193.350359       75.1673951       103.675179                                              
                                 18          193.652615       75.3185233       103.826308                                              
                                 19          193.954872       75.4696515       103.977436                                              
                                 20          194.257128       75.6207797       104.128564                                              
                                 21          194.559385       75.7719080       104.279692                                              
                                 22          194.861641       75.9230362       104.430821                                              
                                 23          195.163897       76.0741644       104.581949                                              
                                 24          195.466154       76.2252926       104.733077                                              
                                 25          195.768410       76.3764208       104.884205                                              
                                 26          196.070667       76.5275490       105.035333                                              
                                 27          196.372923       76.6786772       105.186462                                              
                                 28          196.675179       76.8298054       105.337590                                              
                                 29          196.977436       76.9809336       105.488718                                              
                                 30          197.279692       77.1320618       105.639846                                              
                                 31          197.581949       77.2831900       105.790974                                              
                                 32          197.884205       77.4343182       105.942103                                              
                                 33          198.186462       77.5854464       106.093231                                              
                                 34          198.488718       77.7365746       106.244359                                              
                                 35          198.790974       77.8877028       106.395487                                              
                                 36          199.093231       78.0388310       106.546615                                              
                                 37          199.395487       78.1899592       106.697744                                              
                                 38          199.697744       78.3410874       106.848872                                              
                                 39          200.000000       78.4922156       107.000000                                              
 309              (1,2,3)        1           188.514256       73.2717966       101.257128      01_02_03                                
                                 2           188.816513       73.4229248       101.408256                                              
                                 3           189.118769       73.5740531       101.559385                                              
                                 4           189.421026       73.7251813       101.710513                                              
                                 5           189.723282       73.8763095       101.861641                                              
                                 6           190.025538       74.0274377       102.012769                                              
                                 7           190.327795       74.1785659       102.163897                                              
                                 8           190.630051       74.3296941       102.315026                                              
                                 9           190.932308       74.4808223       102.466154                                              
                                 10          191.234564       74.6319505       102.617282                                              
                                 11          191.536821       74.7830787       102.768410                                              
                                 12          191.839077       74.9342069       102.919538                                              
                                 13          192.141333       75.0853351       103.070667                                              
                                 14          192.443590       75.2364633       103.221795                                              
                                 15          192.745846       75.3875915       103.372923                                              
                                 16          193.048103       75.5387197       103.524051                                              
                                 17          193.350359       75.6898479       103.675179                                              
                                 18          193.652615       75.8409761       103.826308                                              
                                 19          193.954872       75.9921043       103.977436                                              
                                 20          194.257128       76.1432325       104.128564                                              
                                 21          194.559385       76.2943607       104.279692                                              
                                 22          194.861641       76.4454889       104.430821                                              
                                 23          195.163897       76.5966172       104.581949                                              
                                 24          195.466154       76.7477454       104.733077                                              
                                 25          195.768410       76.8988736       104.884205                                              
                                 26          196.070667       77.0500018       105.035333                                              
                                 27          196.372923       77.2011300       105.186462                                              
                                 28          196.675179       77.3522582       105.337590                                              
                                 29          196.977436       77.5033864       105.488718                                              
                                 30          197.279692       77.6545146       105.639846                                              
                                 31          197.581949       77.8056428       105.790974                                              
                                 32          197.884205       77.9567710       105.942103                                              
                                 33          198.186462       78.1078992       106.093231                                              
                                 34          198.488718       78.2590274       106.244359                                              
                                 35          198.790974       78.4101556       106.395487                                              
                                 36          199.093231       78.5612838       106.546615                                              
                                 37          199.395487       78.7124120       106.697744                                              
                                 38          199.697744       78.8635402       106.848872                                              
                                 39          200.000000       79.0146684       107.000000                                              
 310              (1,2,4)        1           188.514256       73.6517992       101.257128      01_02_04                                
                                 2           188.816513       73.8029274       101.408256                                              
                                 3           189.118769       73.9540556       101.559385                                              
                                 4           189.421026       74.1051838       101.710513                                              
                                 5           189.723282       74.2563120       101.861641                                              
                                 6           190.025538       74.4074402       102.012769                                              
                                 7           190.327795       74.5585684       102.163897                                              
                                 8           190.630051       74.7096966       102.315026                                              
                                 9           190.932308       74.8608248       102.466154                                              
                                 10          191.234564       75.0119530       102.617282                                              
                                 11          191.536821       75.1630812       102.768410                                              
                                 12          191.839077       75.3142094       102.919538                                              
                                 13          192.141333       75.4653376       103.070667                                              
                                 14          192.443590       75.6164658       103.221795                                              
                                 15          192.745846       75.7675940       103.372923                                              
                                 16          193.048103       75.9187223       103.524051                                              
                                 17          193.350359       76.0698505       103.675179                                              
                                 18          193.652615       76.2209787       103.826308                                              
                                 19          193.954872       76.3721069       103.977436                                              
                                 20          194.257128       76.5232351       104.128564                                              
                                 21          194.559385       76.6743633       104.279692                                              
                                 22          194.861641       76.8254915       104.430821                                              
                                 23          195.163897       76.9766197       104.581949                                              
                                 24          195.466154       77.1277479       104.733077                                              
                                 25          195.768410       77.2788761       104.884205                                              
                                 26          196.070667       77.4300043       105.035333                                              
                                 27          196.372923       77.5811325       105.186462                                              
                                 28          196.675179       77.7322607       105.337590                                              
                                 29          196.977436       77.8833889       105.488718                                              
                                 30          197.279692       78.0345171       105.639846                                              
                                 31          197.581949       78.1856453       105.790974                                              
                                 32          197.884205       78.3367735       105.942103                                              
                                 33          198.186462       78.4879017       106.093231                                              
                                 34          198.488718       78.6390299       106.244359                                              
                                 35          198.790974       78.7901581       106.395487                                              
                                 36          199.093231       78.9412864       106.546615                                              
                                 37          199.395487       79.0924146       106.697744                                              
                                 38          199.697744       79.2435428       106.848872                                              
                                 39          200.000000       79.3946710       107.000000                                              
 311              (1,2,5)        1           188.514256       73.8677158       101.257128      01_02_05                                
                                 2           188.816513       74.0188440       101.408256                                              
                                 3           189.118769       74.1699722       101.559385                                              
                                 4           189.421026       74.3211004       101.710513                                              
                                 5           189.723282       74.4722286       101.861641                                              
                                 6           190.025538       74.6233568       102.012769                                              
                                 7           190.327795       74.7744850       102.163897                                              
                                 8           190.630051       74.9256133       102.315026                                              
                                 9           190.932308       75.0767415       102.466154                                              
                                 10          191.234564       75.2278697       102.617282                                              
                                 11          191.536821       75.3789979       102.768410                                              
                                 12          191.839077       75.5301261       102.919538                                              
                                 13          192.141333       75.6812543       103.070667                                              
                                 14          192.443590       75.8323825       103.221795                                              
                                 15          192.745846       75.9835107       103.372923                                              
                                 16          193.048103       76.1346389       103.524051                                              
                                 17          193.350359       76.2857671       103.675179                                              
                                 18          193.652615       76.4368953       103.826308                                              
                                 19          193.954872       76.5880235       103.977436                                              
                                 20          194.257128       76.7391517       104.128564                                              
                                 21          194.559385       76.8902799       104.279692                                              
                                 22          194.861641       77.0414081       104.430821                                              
                                 23          195.163897       77.1925363       104.581949                                              
                                 24          195.466154       77.3436645       104.733077                                              
                                 25          195.768410       77.4947927       104.884205                                              
                                 26          196.070667       77.6459209       105.035333                                              
                                 27          196.372923       77.7970492       105.186462                                              
                                 28          196.675179       77.9481774       105.337590                                              
                                 29          196.977436       78.0993056       105.488718                                              
                                 30          197.279692       78.2504338       105.639846                                              
                                 31          197.581949       78.4015620       105.790974                                              
                                 32          197.884205       78.5526902       105.942103                                              
                                 33          198.186462       78.7038184       106.093231                                              
                                 34          198.488718       78.8549466       106.244359                                              
                                 35          198.790974       79.0060748       106.395487                                              
                                 36          199.093231       79.1572030       106.546615                                              
                                 37          199.395487       79.3083312       106.697744                                              
                                 38          199.697744       79.4594594       106.848872                                              
                                 39          200.000000       79.6105876       107.000000                                              
 312              (1,2,6)        1           188.514256       73.9115111       101.257128      01_02_06                                
                                 2           188.816513       74.0626393       101.408256                                              
                                 3           189.118769       74.2137675       101.559385                                              
                                 4           189.421026       74.3648957       101.710513                                              
                                 5           189.723282       74.5160240       101.861641                                              
                                 6           190.025538       74.6671522       102.012769                                              
                                 7           190.327795       74.8182804       102.163897                                              
                                 8           190.630051       74.9694086       102.315026                                              
                                 9           190.932308       75.1205368       102.466154                                              
                                 10          191.234564       75.2716650       102.617282                                              
                                 11          191.536821       75.4227932       102.768410                                              
                                 12          191.839077       75.5739214       102.919538                                              
                                 13          192.141333       75.7250496       103.070667                                              
                                 14          192.443590       75.8761778       103.221795                                              
                                 15          192.745846       76.0273060       103.372923                                              
                                 16          193.048103       76.1784342       103.524051                                              
                                 17          193.350359       76.3295624       103.675179                                              
                                 18          193.652615       76.4806906       103.826308                                              
                                 19          193.954872       76.6318188       103.977436                                              
                                 20          194.257128       76.7829470       104.128564                                              
                                 21          194.559385       76.9340752       104.279692                                              
                                 22          194.861641       77.0852034       104.430821                                              
                                 23          195.163897       77.2363316       104.581949                                              
                                 24          195.466154       77.3874599       104.733077                                              
                                 25          195.768410       77.5385881       104.884205                                              
                                 26          196.070667       77.6897163       105.035333                                              
                                 27          196.372923       77.8408445       105.186462                                              
                                 28          196.675179       77.9919727       105.337590                                              
                                 29          196.977436       78.1431009       105.488718                                              
                                 30          197.279692       78.2942291       105.639846                                              
                                 31          197.581949       78.4453573       105.790974                                              
                                 32          197.884205       78.5964855       105.942103                                              
                                 33          198.186462       78.7476137       106.093231                                              
                                 34          198.488718       78.8987419       106.244359                                              
                                 35          198.790974       79.0498701       106.395487                                              
                                 36          199.093231       79.2009983       106.546615                                              
                                 37          199.395487       79.3521265       106.697744                                              
                                 38          199.697744       79.5032547       106.848872                                              
                                 39          200.000000       79.6543829       107.000000                                              
 313              (1,2,7)        1           188.514256       73.7808248       101.257128      01_02_07                                
                                 2           188.816513       73.9319530       101.408256                                              
                                 3           189.118769       74.0830812       101.559385                                              
                                 4           189.421026       74.2342094       101.710513                                              
                                 5           189.723282       74.3853376       101.861641                                              
                                 6           190.025538       74.5364658       102.012769                                              
                                 7           190.327795       74.6875940       102.163897                                              
                                 8           190.630051       74.8387222       102.315026                                              
                                 9           190.932308       74.9898505       102.466154                                              
                                 10          191.234564       75.1409787       102.617282                                              
                                 11          191.536821       75.2921069       102.768410                                              
                                 12          191.839077       75.4432351       102.919538                                              
                                 13          192.141333       75.5943633       103.070667                                              
                                 14          192.443590       75.7454915       103.221795                                              
                                 15          192.745846       75.8966197       103.372923                                              
                                 16          193.048103       76.0477479       103.524051                                              
                                 17          193.350359       76.1988761       103.675179                                              
                                 18          193.652615       76.3500043       103.826308                                              
                                 19          193.954872       76.5011325       103.977436                                              
                                 20          194.257128       76.6522607       104.128564                                              
                                 21          194.559385       76.8033889       104.279692                                              
                                 22          194.861641       76.9545171       104.430821                                              
                                 23          195.163897       77.1056453       104.581949                                              
                                 24          195.466154       77.2567735       104.733077                                              
                                 25          195.768410       77.4079017       104.884205                                              
                                 26          196.070667       77.5590299       105.035333                                              
                                 27          196.372923       77.7101581       105.186462                                              
                                 28          196.675179       77.8612863       105.337590                                              
                                 29          196.977436       78.0124146       105.488718                                              
                                 30          197.279692       78.1635428       105.639846                                              
                                 31          197.581949       78.3146710       105.790974                                              
                                 32          197.884205       78.4657992       105.942103                                              
                                 33          198.186462       78.6169274       106.093231                                              
                                 34          198.488718       78.7680556       106.244359                                              
                                 35          198.790974       78.9191838       106.395487                                              
                                 36          199.093231       79.0703120       106.546615                                              
                                 37          199.395487       79.2214402       106.697744                                              
                                 38          199.697744       79.3725684       106.848872                                              
                                 39          200.000000       79.5236966       107.000000                                              
 314              (1,2,8)        1           188.514256       73.4782813       101.257128      01_02_08                                
                                 2           188.816513       73.6294095       101.408256                                              
                                 3           189.118769       73.7805377       101.559385                                              
                                 4           189.421026       73.9316659       101.710513                                              
                                 5           189.723282       74.0827941       101.861641                                              
                                 6           190.025538       74.2339223       102.012769                                              
                                 7           190.327795       74.3850505       102.163897                                              
                                 8           190.630051       74.5361787       102.315026                                              
                                 9           190.932308       74.6873069       102.466154                                              
                                 10          191.234564       74.8384351       102.617282                                              
                                 11          191.536821       74.9895633       102.768410                                              
                                 12          191.839077       75.1406915       102.919538                                              
                                 13          192.141333       75.2918197       103.070667                                              
                                 14          192.443590       75.4429479       103.221795                                              
                                 15          192.745846       75.5940761       103.372923                                              
                                 16          193.048103       75.7452043       103.524051                                              
                                 17          193.350359       75.8963325       103.675179                                              
                                 18          193.652615       76.0474607       103.826308                                              
                                 19          193.954872       76.1985890       103.977436                                              
                                 20          194.257128       76.3497172       104.128564                                              
                                 21          194.559385       76.5008454       104.279692                                              
                                 22          194.861641       76.6519736       104.430821                                              
                                 23          195.163897       76.8031018       104.581949                                              
                                 24          195.466154       76.9542300       104.733077                                              
                                 25          195.768410       77.1053582       104.884205                                              
                                 26          196.070667       77.2564864       105.035333                                              
                                 27          196.372923       77.4076146       105.186462                                              
                                 28          196.675179       77.5587428       105.337590                                              
                                 29          196.977436       77.7098710       105.488718                                              
                                 30          197.279692       77.8609992       105.639846                                              
                                 31          197.581949       78.0121274       105.790974                                              
                                 32          197.884205       78.1632556       105.942103                                              
                                 33          198.186462       78.3143838       106.093231                                              
                                 34          198.488718       78.4655120       106.244359                                              
                                 35          198.790974       78.6166402       106.395487                                              
                                 36          199.093231       78.7677684       106.546615                                              
                                 37          199.395487       78.9188966       106.697744                                              
                                 38          199.697744       79.0700249       106.848872                                              
                                 39          200.000000       79.2211531       107.000000                                              
 315              (1,2,9)        1           188.514256       73.0180711       101.257128      01_02_09                                
                                 2           188.816513       73.1691993       101.408256                                              
                                 3           189.118769       73.3203275       101.559385                                              
                                 4           189.421026       73.4714557       101.710513                                              
                                 5           189.723282       73.6225839       101.861641                                              
                                 6           190.025538       73.7737121       102.012769                                              
                                 7           190.327795       73.9248403       102.163897                                              
                                 8           190.630051       74.0759685       102.315026                                              
                                 9           190.932308       74.2270967       102.466154                                              
                                 10          191.234564       74.3782249       102.617282                                              
                                 11          191.536821       74.5293531       102.768410                                              
                                 12          191.839077       74.6804813       102.919538                                              
                                 13          192.141333       74.8316095       103.070667                                              
                                 14          192.443590       74.9827378       103.221795                                              
                                 15          192.745846       75.1338660       103.372923                                              
                                 16          193.048103       75.2849942       103.524051                                              
                                 17          193.350359       75.4361224       103.675179                                              
                                 18          193.652615       75.5872506       103.826308                                              
                                 19          193.954872       75.7383788       103.977436                                              
                                 20          194.257128       75.8895070       104.128564                                              
                                 21          194.559385       76.0406352       104.279692                                              
                                 22          194.861641       76.1917634       104.430821                                              
                                 23          195.163897       76.3428916       104.581949                                              
                                 24          195.466154       76.4940198       104.733077                                              
                                 25          195.768410       76.6451480       104.884205                                              
                                 26          196.070667       76.7962762       105.035333                                              
                                 27          196.372923       76.9474044       105.186462                                              
                                 28          196.675179       77.0985326       105.337590                                              
                                 29          196.977436       77.2496608       105.488718                                              
                                 30          197.279692       77.4007890       105.639846                                              
                                 31          197.581949       77.5519172       105.790974                                              
                                 32          197.884205       77.7030454       105.942103                                              
                                 33          198.186462       77.8541736       106.093231                                              
                                 34          198.488718       78.0053019       106.244359                                              
                                 35          198.790974       78.1564301       106.395487                                              
                                 36          199.093231       78.3075583       106.546615                                              
                                 37          199.395487       78.4586865       106.697744                                              
                                 38          199.697744       78.6098147       106.848872                                              
                                 39          200.000000       78.7609429       107.000000                                              
 316              (1,2,10)       1           188.514256       72.4453097       101.257128      01_02_10                                
                                 2           188.816513       72.5964379       101.408256                                              
                                 3           189.118769       72.7475661       101.559385                                              
                                 4           189.421026       72.8986943       101.710513                                              
                                 5           189.723282       73.0498225       101.861641                                              
                                 6           190.025538       73.2009507       102.012769                                              
                                 7           190.327795       73.3520789       102.163897                                              
                                 8           190.630051       73.5032071       102.315026                                              
                                 9           190.932308       73.6543354       102.466154                                              
                                 10          191.234564       73.8054636       102.617282                                              
                                 11          191.536821       73.9565918       102.768410                                              
                                 12          191.839077       74.1077200       102.919538                                              
                                 13          192.141333       74.2588482       103.070667                                              
                                 14          192.443590       74.4099764       103.221795                                              
                                 15          192.745846       74.5611046       103.372923                                              
                                 16          193.048103       74.7122328       103.524051                                              
                                 17          193.350359       74.8633610       103.675179                                              
                                 18          193.652615       75.0144892       103.826308                                              
                                 19          193.954872       75.1656174       103.977436                                              
                                 20          194.257128       75.3167456       104.128564                                              
                                 21          194.559385       75.4678738       104.279692                                              
                                 22          194.861641       75.6190020       104.430821                                              
                                 23          195.163897       75.7701302       104.581949                                              
                                 24          195.466154       75.9212584       104.733077                                              
                                 25          195.768410       76.0723866       104.884205                                              
                                 26          196.070667       76.2235148       105.035333                                              
                                 27          196.372923       76.3746430       105.186462                                              
                                 28          196.675179       76.5257713       105.337590                                              
                                 29          196.977436       76.6768995       105.488718                                              
                                 30          197.279692       76.8280277       105.639846                                              
                                 31          197.581949       76.9791559       105.790974                                              
                                 32          197.884205       77.1302841       105.942103                                              
                                 33          198.186462       77.2814123       106.093231                                              
                                 34          198.488718       77.4325405       106.244359                                              
                                 35          198.790974       77.5836687       106.395487                                              
                                 36          199.093231       77.7347969       106.546615                                              
                                 37          199.395487       77.8859251       106.697744                                              
                                 38          199.697744       78.0370533       106.848872                                              
                                 39          200.000000       78.1881815       107.000000                                              
 317              (1,3,1)        1           188.514256       73.8857556       101.257128      01_03_01                                
                                 2           188.816513       74.0368838       101.408256                                              
                                 3           189.118769       74.1880120       101.559385                                              
                                 4           189.421026       74.3391402       101.710513                                              
                                 5           189.723282       74.4902684       101.861641                                              
                                 6           190.025538       74.6413966       102.012769                                              
                                 7           190.327795       74.7925248       102.163897                                              
                                 8           190.630051       74.9436530       102.315026                                              
                                 9           190.932308       75.0947812       102.466154                                              
                                 10          191.234564       75.2459095       102.617282                                              
                                 11          191.536821       75.3970377       102.768410                                              
                                 12          191.839077       75.5481659       102.919538                                              
                                 13          192.141333       75.6992941       103.070667                                              
                                 14          192.443590       75.8504223       103.221795                                              
                                 15          192.745846       76.0015505       103.372923                                              
                                 16          193.048103       76.1526787       103.524051                                              
                                 17          193.350359       76.3038069       103.675179                                              
                                 18          193.652615       76.4549351       103.826308                                              
                                 19          193.954872       76.6060633       103.977436                                              
                                 20          194.257128       76.7571915       104.128564                                              
                                 21          194.559385       76.9083197       104.279692                                              
                                 22          194.861641       77.0594479       104.430821                                              
                                 23          195.163897       77.2105761       104.581949                                              
                                 24          195.466154       77.3617043       104.733077                                              
                                 25          195.768410       77.5128325       104.884205                                              
                                 26          196.070667       77.6639607       105.035333                                              
                                 27          196.372923       77.8150889       105.186462                                              
                                 28          196.675179       77.9662171       105.337590                                              
                                 29          196.977436       78.1173454       105.488718                                              
                                 30          197.279692       78.2684736       105.639846                                              
                                 31          197.581949       78.4196018       105.790974                                              
                                 32          197.884205       78.5707300       105.942103                                              
                                 33          198.186462       78.7218582       106.093231                                              
                                 34          198.488718       78.8729864       106.244359                                              
                                 35          198.790974       79.0241146       106.395487                                              
                                 36          199.093231       79.1752428       106.546615                                              
                                 37          199.395487       79.3263710       106.697744                                              
                                 38          199.697744       79.4774992       106.848872                                              
                                 39          200.000000       79.6286274       107.000000                                              
 318              (1,3,2)        1           188.514256       74.4789397       101.257128      01_03_02                                
                                 2           188.816513       74.6300679       101.408256                                              
                                 3           189.118769       74.7811961       101.559385                                              
                                 4           189.421026       74.9323243       101.710513                                              
                                 5           189.723282       75.0834525       101.861641                                              
                                 6           190.025538       75.2345807       102.012769                                              
                                 7           190.327795       75.3857089       102.163897                                              
                                 8           190.630051       75.5368371       102.315026                                              
                                 9           190.932308       75.6879653       102.466154                                              
                                 10          191.234564       75.8390935       102.617282                                              
                                 11          191.536821       75.9902217       102.768410                                              
                                 12          191.839077       76.1413499       102.919538                                              
                                 13          192.141333       76.2924781       103.070667                                              
                                 14          192.443590       76.4436064       103.221795                                              
                                 15          192.745846       76.5947346       103.372923                                              
                                 16          193.048103       76.7458628       103.524051                                              
                                 17          193.350359       76.8969910       103.675179                                              
                                 18          193.652615       77.0481192       103.826308                                              
                                 19          193.954872       77.1992474       103.977436                                              
                                 20          194.257128       77.3503756       104.128564                                              
                                 21          194.559385       77.5015038       104.279692                                              
                                 22          194.861641       77.6526320       104.430821                                              
                                 23          195.163897       77.8037602       104.581949                                              
                                 24          195.466154       77.9548884       104.733077                                              
                                 25          195.768410       78.1060166       104.884205                                              
                                 26          196.070667       78.2571448       105.035333                                              
                                 27          196.372923       78.4082730       105.186462                                              
                                 28          196.675179       78.5594012       105.337590                                              
                                 29          196.977436       78.7105294       105.488718                                              
                                 30          197.279692       78.8616576       105.639846                                              
                                 31          197.581949       79.0127858       105.790974                                              
                                 32          197.884205       79.1639140       105.942103                                              
                                 33          198.186462       79.3150422       106.093231                                              
                                 34          198.488718       79.4661705       106.244359                                              
                                 35          198.790974       79.6172987       106.395487                                              
                                 36          199.093231       79.7684269       106.546615                                              
                                 37          199.395487       79.9195551       106.697744                                              
                                 38          199.697744       80.0706833       106.848872                                              
                                 39          200.000000       80.2218115       107.000000                                              
 319              (1,3,3)        1           188.514256       74.9342703       101.257128      01_03_03                                
                                 2           188.816513       75.0853985       101.408256                                              
                                 3           189.118769       75.2365267       101.559385                                              
                                 4           189.421026       75.3876549       101.710513                                              
                                 5           189.723282       75.5387831       101.861641                                              
                                 6           190.025538       75.6899113       102.012769                                              
                                 7           190.327795       75.8410395       102.163897                                              
                                 8           190.630051       75.9921677       102.315026                                              
                                 9           190.932308       76.1432959       102.466154                                              
                                 10          191.234564       76.2944241       102.617282                                              
                                 11          191.536821       76.4455524       102.768410                                              
                                 12          191.839077       76.5966806       102.919538                                              
                                 13          192.141333       76.7478088       103.070667                                              
                                 14          192.443590       76.8989370       103.221795                                              
                                 15          192.745846       77.0500652       103.372923                                              
                                 16          193.048103       77.2011934       103.524051                                              
                                 17          193.350359       77.3523216       103.675179                                              
                                 18          193.652615       77.5034498       103.826308                                              
                                 19          193.954872       77.6545780       103.977436                                              
                                 20          194.257128       77.8057062       104.128564                                              
                                 21          194.559385       77.9568344       104.279692                                              
                                 22          194.861641       78.1079626       104.430821                                              
                                 23          195.163897       78.2590908       104.581949                                              
                                 24          195.466154       78.4102190       104.733077                                              
                                 25          195.768410       78.5613472       104.884205                                              
                                 26          196.070667       78.7124754       105.035333                                              
                                 27          196.372923       78.8636036       105.186462                                              
                                 28          196.675179       79.0147318       105.337590                                              
                                 29          196.977436       79.1658600       105.488718                                              
                                 30          197.279692       79.3169882       105.639846                                              
                                 31          197.581949       79.4681165       105.790974                                              
                                 32          197.884205       79.6192447       105.942103                                              
                                 33          198.186462       79.7703729       106.093231                                              
                                 34          198.488718       79.9215011       106.244359                                              
                                 35          198.790974       80.0726293       106.395487                                              
                                 36          199.093231       80.2237575       106.546615                                              
                                 37          199.395487       80.3748857       106.697744                                              
                                 38          199.697744       80.5260139       106.848872                                              
                                 39          200.000000       80.6771421       107.000000                                              
 320              (1,3,4)        1           188.514256       75.2573379       101.257128      01_03_04                                
                                 2           188.816513       75.4084661       101.408256                                              
                                 3           189.118769       75.5595943       101.559385                                              
                                 4           189.421026       75.7107225       101.710513                                              
                                 5           189.723282       75.8618507       101.861641                                              
                                 6           190.025538       76.0129789       102.012769                                              
                                 7           190.327795       76.1641071       102.163897                                              
                                 8           190.630051       76.3152353       102.315026                                              
                                 9           190.932308       76.4663635       102.466154                                              
                                 10          191.234564       76.6174917       102.617282                                              
                                 11          191.536821       76.7686199       102.768410                                              
                                 12          191.839077       76.9197481       102.919538                                              
                                 13          192.141333       77.0708763       103.070667                                              
                                 14          192.443590       77.2220045       103.221795                                              
                                 15          192.745846       77.3731327       103.372923                                              
                                 16          193.048103       77.5242609       103.524051                                              
                                 17          193.350359       77.6753892       103.675179                                              
                                 18          193.652615       77.8265174       103.826308                                              
                                 19          193.954872       77.9776456       103.977436                                              
                                 20          194.257128       78.1287738       104.128564                                              
                                 21          194.559385       78.2799020       104.279692                                              
                                 22          194.861641       78.4310302       104.430821                                              
                                 23          195.163897       78.5821584       104.581949                                              
                                 24          195.466154       78.7332866       104.733077                                              
                                 25          195.768410       78.8844148       104.884205                                              
                                 26          196.070667       79.0355430       105.035333                                              
                                 27          196.372923       79.1866712       105.186462                                              
                                 28          196.675179       79.3377994       105.337590                                              
                                 29          196.977436       79.4889276       105.488718                                              
                                 30          197.279692       79.6400558       105.639846                                              
                                 31          197.581949       79.7911840       105.790974                                              
                                 32          197.884205       79.9423122       105.942103                                              
                                 33          198.186462       80.0934404       106.093231                                              
                                 34          198.488718       80.2445686       106.244359                                              
                                 35          198.790974       80.3956968       106.395487                                              
                                 36          199.093231       80.5468250       106.546615                                              
                                 37          199.395487       80.6979533       106.697744                                              
                                 38          199.697744       80.8490815       106.848872                                              
                                 39          200.000000       81.0002097       107.000000                                              
 321              (1,3,5)        1           188.514256       75.4503266       101.257128      01_03_05                                
                                 2           188.816513       75.6014548       101.408256                                              
                                 3           189.118769       75.7525830       101.559385                                              
                                 4           189.421026       75.9037113       101.710513                                              
                                 5           189.723282       76.0548395       101.861641                                              
                                 6           190.025538       76.2059677       102.012769                                              
                                 7           190.327795       76.3570959       102.163897                                              
                                 8           190.630051       76.5082241       102.315026                                              
                                 9           190.932308       76.6593523       102.466154                                              
                                 10          191.234564       76.8104805       102.617282                                              
                                 11          191.536821       76.9616087       102.768410                                              
                                 12          191.839077       77.1127369       102.919538                                              
                                 13          192.141333       77.2638651       103.070667                                              
                                 14          192.443590       77.4149933       103.221795                                              
                                 15          192.745846       77.5661215       103.372923                                              
                                 16          193.048103       77.7172497       103.524051                                              
                                 17          193.350359       77.8683779       103.675179                                              
                                 18          193.652615       78.0195061       103.826308                                              
                                 19          193.954872       78.1706343       103.977436                                              
                                 20          194.257128       78.3217625       104.128564                                              
                                 21          194.559385       78.4728907       104.279692                                              
                                 22          194.861641       78.6240189       104.430821                                              
                                 23          195.163897       78.7751471       104.581949                                              
                                 24          195.466154       78.9262754       104.733077                                              
                                 25          195.768410       79.0774036       104.884205                                              
                                 26          196.070667       79.2285318       105.035333                                              
                                 27          196.372923       79.3796600       105.186462                                              
                                 28          196.675179       79.5307882       105.337590                                              
                                 29          196.977436       79.6819164       105.488718                                              
                                 30          197.279692       79.8330446       105.639846                                              
                                 31          197.581949       79.9841728       105.790974                                              
                                 32          197.884205       80.1353010       105.942103                                              
                                 33          198.186462       80.2864292       106.093231                                              
                                 34          198.488718       80.4375574       106.244359                                              
                                 35          198.790974       80.5886856       106.395487                                              
                                 36          199.093231       80.7398138       106.546615                                              
                                 37          199.395487       80.8909420       106.697744                                              
                                 38          199.697744       81.0420702       106.848872                                              
                                 39          200.000000       81.1931984       107.000000                                              
 322              (1,3,6)        1           188.514256       75.5146035       101.257128      01_03_06                                
                                 2           188.816513       75.6657317       101.408256                                              
                                 3           189.118769       75.8168599       101.559385                                              
                                 4           189.421026       75.9679881       101.710513                                              
                                 5           189.723282       76.1191163       101.861641                                              
                                 6           190.025538       76.2702445       102.012769                                              
                                 7           190.327795       76.4213727       102.163897                                              
                                 8           190.630051       76.5725009       102.315026                                              
                                 9           190.932308       76.7236292       102.466154                                              
                                 10          191.234564       76.8747574       102.617282                                              
                                 11          191.536821       77.0258856       102.768410                                              
                                 12          191.839077       77.1770138       102.919538                                              
                                 13          192.141333       77.3281420       103.070667                                              
                                 14          192.443590       77.4792702       103.221795                                              
                                 15          192.745846       77.6303984       103.372923                                              
                                 16          193.048103       77.7815266       103.524051                                              
                                 17          193.350359       77.9326548       103.675179                                              
                                 18          193.652615       78.0837830       103.826308                                              
                                 19          193.954872       78.2349112       103.977436                                              
                                 20          194.257128       78.3860394       104.128564                                              
                                 21          194.559385       78.5371676       104.279692                                              
                                 22          194.861641       78.6882958       104.430821                                              
                                 23          195.163897       78.8394240       104.581949                                              
                                 24          195.466154       78.9905522       104.733077                                              
                                 25          195.768410       79.1416804       104.884205                                              
                                 26          196.070667       79.2928086       105.035333                                              
                                 27          196.372923       79.4439368       105.186462                                              
                                 28          196.675179       79.5950650       105.337590                                              
                                 29          196.977436       79.7461933       105.488718                                              
                                 30          197.279692       79.8973215       105.639846                                              
                                 31          197.581949       80.0484497       105.790974                                              
                                 32          197.884205       80.1995779       105.942103                                              
                                 33          198.186462       80.3507061       106.093231                                              
                                 34          198.488718       80.5018343       106.244359                                              
                                 35          198.790974       80.6529625       106.395487                                              
                                 36          199.093231       80.8040907       106.546615                                              
                                 37          199.395487       80.9552189       106.697744                                              
                                 38          199.697744       81.1063471       106.848872                                              
                                 39          200.000000       81.2574753       107.000000                                              
 323              (1,3,7)        1           188.514256       75.4508847       101.257128      01_03_07                                
                                 2           188.816513       75.6020129       101.408256                                              
                                 3           189.118769       75.7531411       101.559385                                              
                                 4           189.421026       75.9042693       101.710513                                              
                                 5           189.723282       76.0553975       101.861641                                              
                                 6           190.025538       76.2065257       102.012769                                              
                                 7           190.327795       76.3576540       102.163897                                              
                                 8           190.630051       76.5087822       102.315026                                              
                                 9           190.932308       76.6599104       102.466154                                              
                                 10          191.234564       76.8110386       102.617282                                              
                                 11          191.536821       76.9621668       102.768410                                              
                                 12          191.839077       77.1132950       102.919538                                              
                                 13          192.141333       77.2644232       103.070667                                              
                                 14          192.443590       77.4155514       103.221795                                              
                                 15          192.745846       77.5666796       103.372923                                              
                                 16          193.048103       77.7178078       103.524051                                              
                                 17          193.350359       77.8689360       103.675179                                              
                                 18          193.652615       78.0200642       103.826308                                              
                                 19          193.954872       78.1711924       103.977436                                              
                                 20          194.257128       78.3223206       104.128564                                              
                                 21          194.559385       78.4734488       104.279692                                              
                                 22          194.861641       78.6245770       104.430821                                              
                                 23          195.163897       78.7757052       104.581949                                              
                                 24          195.466154       78.9268334       104.733077                                              
                                 25          195.768410       79.0779616       104.884205                                              
                                 26          196.070667       79.2290898       105.035333                                              
                                 27          196.372923       79.3802181       105.186462                                              
                                 28          196.675179       79.5313463       105.337590                                              
                                 29          196.977436       79.6824745       105.488718                                              
                                 30          197.279692       79.8336027       105.639846                                              
                                 31          197.581949       79.9847309       105.790974                                              
                                 32          197.884205       80.1358591       105.942103                                              
                                 33          198.186462       80.2869873       106.093231                                              
                                 34          198.488718       80.4381155       106.244359                                              
                                 35          198.790974       80.5892437       106.395487                                              
                                 36          199.093231       80.7403719       106.546615                                              
                                 37          199.395487       80.8915001       106.697744                                              
                                 38          199.697744       81.0426283       106.848872                                              
                                 39          200.000000       81.1937565       107.000000                                              
 324              (1,3,8)        1           188.514256       75.2577921       101.257128      01_03_08                                
                                 2           188.816513       75.4089203       101.408256                                              
                                 3           189.118769       75.5600486       101.559385                                              
                                 4           189.421026       75.7111768       101.710513                                              
                                 5           189.723282       75.8623050       101.861641                                              
                                 6           190.025538       76.0134332       102.012769                                              
                                 7           190.327795       76.1645614       102.163897                                              
                                 8           190.630051       76.3156896       102.315026                                              
                                 9           190.932308       76.4668178       102.466154                                              
                                 10          191.234564       76.6179460       102.617282                                              
                                 11          191.536821       76.7690742       102.768410                                              
                                 12          191.839077       76.9202024       102.919538                                              
                                 13          192.141333       77.0713306       103.070667                                              
                                 14          192.443590       77.2224588       103.221795                                              
                                 15          192.745846       77.3735870       103.372923                                              
                                 16          193.048103       77.5247152       103.524051                                              
                                 17          193.350359       77.6758434       103.675179                                              
                                 18          193.652615       77.8269716       103.826308                                              
                                 19          193.954872       77.9780998       103.977436                                              
                                 20          194.257128       78.1292280       104.128564                                              
                                 21          194.559385       78.2803562       104.279692                                              
                                 22          194.861641       78.4314844       104.430821                                              
                                 23          195.163897       78.5826127       104.581949                                              
                                 24          195.466154       78.7337409       104.733077                                              
                                 25          195.768410       78.8848691       104.884205                                              
                                 26          196.070667       79.0359973       105.035333                                              
                                 27          196.372923       79.1871255       105.186462                                              
                                 28          196.675179       79.3382537       105.337590                                              
                                 29          196.977436       79.4893819       105.488718                                              
                                 30          197.279692       79.6405101       105.639846                                              
                                 31          197.581949       79.7916383       105.790974                                              
                                 32          197.884205       79.9427665       105.942103                                              
                                 33          198.186462       80.0938947       106.093231                                              
                                 34          198.488718       80.2450229       106.244359                                              
                                 35          198.790974       80.3961511       106.395487                                              
                                 36          199.093231       80.5472793       106.546615                                              
                                 37          199.395487       80.6984075       106.697744                                              
                                 38          199.697744       80.8495357       106.848872                                              
                                 39          200.000000       81.0006639       107.000000                                              
 325              (1,3,9)        1           188.514256       74.9271569       101.257128      01_03_09                                
                                 2           188.816513       75.0782851       101.408256                                              
                                 3           189.118769       75.2294133       101.559385                                              
                                 4           189.421026       75.3805415       101.710513                                              
                                 5           189.723282       75.5316697       101.861641                                              
                                 6           190.025538       75.6827979       102.012769                                              
                                 7           190.327795       75.8339261       102.163897                                              
                                 8           190.630051       75.9850543       102.315026                                              
                                 9           190.932308       76.1361825       102.466154                                              
                                 10          191.234564       76.2873107       102.617282                                              
                                 11          191.536821       76.4384389       102.768410                                              
                                 12          191.839077       76.5895671       102.919538                                              
                                 13          192.141333       76.7406953       103.070667                                              
                                 14          192.443590       76.8918235       103.221795                                              
                                 15          192.745846       77.0429517       103.372923                                              
                                 16          193.048103       77.1940799       103.524051                                              
                                 17          193.350359       77.3452081       103.675179                                              
                                 18          193.652615       77.4963363       103.826308                                              
                                 19          193.954872       77.6474646       103.977436                                              
                                 20          194.257128       77.7985928       104.128564                                              
                                 21          194.559385       77.9497210       104.279692                                              
                                 22          194.861641       78.1008492       104.430821                                              
                                 23          195.163897       78.2519774       104.581949                                              
                                 24          195.466154       78.4031056       104.733077                                              
                                 25          195.768410       78.5542338       104.884205                                              
                                 26          196.070667       78.7053620       105.035333                                              
                                 27          196.372923       78.8564902       105.186462                                              
                                 28          196.675179       79.0076184       105.337590                                              
                                 29          196.977436       79.1587466       105.488718                                              
                                 30          197.279692       79.3098748       105.639846                                              
                                 31          197.581949       79.4610030       105.790974                                              
                                 32          197.884205       79.6121312       105.942103                                              
                                 33          198.186462       79.7632594       106.093231                                              
                                 34          198.488718       79.9143876       106.244359                                              
                                 35          198.790974       80.0655158       106.395487                                              
                                 36          199.093231       80.2166440       106.546615                                              
                                 37          199.395487       80.3677722       106.697744                                              
                                 38          199.697744       80.5189004       106.848872                                              
                                 39          200.000000       80.6700287       107.000000                                              
 326              (1,3,10)       1           188.514256       74.4304338       101.257128      01_03_10                                
                                 2           188.816513       74.5815620       101.408256                                              
                                 3           189.118769       74.7326902       101.559385                                              
                                 4           189.421026       74.8838184       101.710513                                              
                                 5           189.723282       75.0349466       101.861641                                              
                                 6           190.025538       75.1860748       102.012769                                              
                                 7           190.327795       75.3372030       102.163897                                              
                                 8           190.630051       75.4883312       102.315026                                              
                                 9           190.932308       75.6394594       102.466154                                              
                                 10          191.234564       75.7905876       102.617282                                              
                                 11          191.536821       75.9417158       102.768410                                              
                                 12          191.839077       76.0928440       102.919538                                              
                                 13          192.141333       76.2439722       103.070667                                              
                                 14          192.443590       76.3951004       103.221795                                              
                                 15          192.745846       76.5462286       103.372923                                              
                                 16          193.048103       76.6973568       103.524051                                              
                                 17          193.350359       76.8484850       103.675179                                              
                                 18          193.652615       76.9996132       103.826308                                              
                                 19          193.954872       77.1507415       103.977436                                              
                                 20          194.257128       77.3018697       104.128564                                              
                                 21          194.559385       77.4529979       104.279692                                              
                                 22          194.861641       77.6041261       104.430821                                              
                                 23          195.163897       77.7552543       104.581949                                              
                                 24          195.466154       77.9063825       104.733077                                              
                                 25          195.768410       78.0575107       104.884205                                              
                                 26          196.070667       78.2086389       105.035333                                              
                                 27          196.372923       78.3597671       105.186462                                              
                                 28          196.675179       78.5108953       105.337590                                              
                                 29          196.977436       78.6620235       105.488718                                              
                                 30          197.279692       78.8131517       105.639846                                              
                                 31          197.581949       78.9642799       105.790974                                              
                                 32          197.884205       79.1154081       105.942103                                              
                                 33          198.186462       79.2665363       106.093231                                              
                                 34          198.488718       79.4176645       106.244359                                              
                                 35          198.790974       79.5687927       106.395487                                              
                                 36          199.093231       79.7199209       106.546615                                              
                                 37          199.395487       79.8710491       106.697744                                              
                                 38          199.697744       80.0221774       106.848872                                              
                                 39          200.000000       80.1733056       107.000000                                              
 327              (1,4,1)        1           188.514256       76.2207233       101.257128      01_04_01                                
                                 2           188.816513       76.3718515       101.408256                                              
                                 3           189.118769       76.5229797       101.559385                                              
                                 4           189.421026       76.6741079       101.710513                                              
                                 5           189.723282       76.8252361       101.861641                                              
                                 6           190.025538       76.9763643       102.012769                                              
                                 7           190.327795       77.1274925       102.163897                                              
                                 8           190.630051       77.2786207       102.315026                                              
                                 9           190.932308       77.4297489       102.466154                                              
                                 10          191.234564       77.5808771       102.617282                                              
                                 11          191.536821       77.7320053       102.768410                                              
                                 12          191.839077       77.8831335       102.919538                                              
                                 13          192.141333       78.0342617       103.070667                                              
                                 14          192.443590       78.1853899       103.221795                                              
                                 15          192.745846       78.3365181       103.372923                                              
                                 16          193.048103       78.4876463       103.524051                                              
                                 17          193.350359       78.6387745       103.675179                                              
                                 18          193.652615       78.7899027       103.826308                                              
                                 19          193.954872       78.9410310       103.977436                                              
                                 20          194.257128       79.0921592       104.128564                                              
                                 21          194.559385       79.2432874       104.279692                                              
                                 22          194.861641       79.3944156       104.430821                                              
                                 23          195.163897       79.5455438       104.581949                                              
                                 24          195.466154       79.6966720       104.733077                                              
                                 25          195.768410       79.8478002       104.884205                                              
                                 26          196.070667       79.9989284       105.035333                                              
                                 27          196.372923       80.1500566       105.186462                                              
                                 28          196.675179       80.3011848       105.337590                                              
                                 29          196.977436       80.4523130       105.488718                                              
                                 30          197.279692       80.6034412       105.639846                                              
                                 31          197.581949       80.7545694       105.790974                                              
                                 32          197.884205       80.9056976       105.942103                                              
                                 33          198.186462       81.0568258       106.093231                                              
                                 34          198.488718       81.2079540       106.244359                                              
                                 35          198.790974       81.3590822       106.395487                                              
                                 36          199.093231       81.5102104       106.546615                                              
                                 37          199.395487       81.6613386       106.697744                                              
                                 38          199.697744       81.8124669       106.848872                                              
                                 39          200.000000       81.9635951       107.000000                                              
 328              (1,4,2)        1           188.514256       76.7374844       101.257128      01_04_02                                
                                 2           188.816513       76.8886126       101.408256                                              
                                 3           189.118769       77.0397408       101.559385                                              
                                 4           189.421026       77.1908690       101.710513                                              
                                 5           189.723282       77.3419972       101.861641                                              
                                 6           190.025538       77.4931254       102.012769                                              
                                 7           190.327795       77.6442536       102.163897                                              
                                 8           190.630051       77.7953818       102.315026                                              
                                 9           190.932308       77.9465100       102.466154                                              
                                 10          191.234564       78.0976382       102.617282                                              
                                 11          191.536821       78.2487664       102.768410                                              
                                 12          191.839077       78.3998946       102.919538                                              
                                 13          192.141333       78.5510228       103.070667                                              
                                 14          192.443590       78.7021510       103.221795                                              
                                 15          192.745846       78.8532792       103.372923                                              
                                 16          193.048103       79.0044074       103.524051                                              
                                 17          193.350359       79.1555356       103.675179                                              
                                 18          193.652615       79.3066638       103.826308                                              
                                 19          193.954872       79.4577920       103.977436                                              
                                 20          194.257128       79.6089202       104.128564                                              
                                 21          194.559385       79.7600485       104.279692                                              
                                 22          194.861641       79.9111767       104.430821                                              
                                 23          195.163897       80.0623049       104.581949                                              
                                 24          195.466154       80.2134331       104.733077                                              
                                 25          195.768410       80.3645613       104.884205                                              
                                 26          196.070667       80.5156895       105.035333                                              
                                 27          196.372923       80.6668177       105.186462                                              
                                 28          196.675179       80.8179459       105.337590                                              
                                 29          196.977436       80.9690741       105.488718                                              
                                 30          197.279692       81.1202023       105.639846                                              
                                 31          197.581949       81.2713305       105.790974                                              
                                 32          197.884205       81.4224587       105.942103                                              
                                 33          198.186462       81.5735869       106.093231                                              
                                 34          198.488718       81.7247151       106.244359                                              
                                 35          198.790974       81.8758433       106.395487                                              
                                 36          199.093231       82.0269715       106.546615                                              
                                 37          199.395487       82.1780997       106.697744                                              
                                 38          199.697744       82.3292279       106.848872                                              
                                 39          200.000000       82.4803561       107.000000                                              
 329              (1,4,3)        1           188.514256       77.1065735       101.257128      01_04_03                                
                                 2           188.816513       77.2577017       101.408256                                              
                                 3           189.118769       77.4088299       101.559385                                              
                                 4           189.421026       77.5599581       101.710513                                              
                                 5           189.723282       77.7110863       101.861641                                              
                                 6           190.025538       77.8622145       102.012769                                              
                                 7           190.327795       78.0133427       102.163897                                              
                                 8           190.630051       78.1644709       102.315026                                              
                                 9           190.932308       78.3155991       102.466154                                              
                                 10          191.234564       78.4667273       102.617282                                              
                                 11          191.536821       78.6178555       102.768410                                              
                                 12          191.839077       78.7689837       102.919538                                              
                                 13          192.141333       78.9201119       103.070667                                              
                                 14          192.443590       79.0712402       103.221795                                              
                                 15          192.745846       79.2223684       103.372923                                              
                                 16          193.048103       79.3734966       103.524051                                              
                                 17          193.350359       79.5246248       103.675179                                              
                                 18          193.652615       79.6757530       103.826308                                              
                                 19          193.954872       79.8268812       103.977436                                              
                                 20          194.257128       79.9780094       104.128564                                              
                                 21          194.559385       80.1291376       104.279692                                              
                                 22          194.861641       80.2802658       104.430821                                              
                                 23          195.163897       80.4313940       104.581949                                              
                                 24          195.466154       80.5825222       104.733077                                              
                                 25          195.768410       80.7336504       104.884205                                              
                                 26          196.070667       80.8847786       105.035333                                              
                                 27          196.372923       81.0359068       105.186462                                              
                                 28          196.675179       81.1870350       105.337590                                              
                                 29          196.977436       81.3381632       105.488718                                              
                                 30          197.279692       81.4892914       105.639846                                              
                                 31          197.581949       81.6404196       105.790974                                              
                                 32          197.884205       81.7915478       105.942103                                              
                                 33          198.186462       81.9426760       106.093231                                              
                                 34          198.488718       82.0938043       106.244359                                              
                                 35          198.790974       82.2449325       106.395487                                              
                                 36          199.093231       82.3960607       106.546615                                              
                                 37          199.395487       82.5471889       106.697744                                              
                                 38          199.697744       82.6983171       106.848872                                              
                                 39          200.000000       82.8494453       107.000000                                              
 330              (1,4,4)        1           188.514256       77.3650764       101.257128      01_04_04                                
                                 2           188.816513       77.5162047       101.408256                                              
                                 3           189.118769       77.6673329       101.559385                                              
                                 4           189.421026       77.8184611       101.710513                                              
                                 5           189.723282       77.9695893       101.861641                                              
                                 6           190.025538       78.1207175       102.012769                                              
                                 7           190.327795       78.2718457       102.163897                                              
                                 8           190.630051       78.4229739       102.315026                                              
                                 9           190.932308       78.5741021       102.466154                                              
                                 10          191.234564       78.7252303       102.617282                                              
                                 11          191.536821       78.8763585       102.768410                                              
                                 12          191.839077       79.0274867       102.919538                                              
                                 13          192.141333       79.1786149       103.070667                                              
                                 14          192.443590       79.3297431       103.221795                                              
                                 15          192.745846       79.4808713       103.372923                                              
                                 16          193.048103       79.6319995       103.524051                                              
                                 17          193.350359       79.7831277       103.675179                                              
                                 18          193.652615       79.9342559       103.826308                                              
                                 19          193.954872       80.0853841       103.977436                                              
                                 20          194.257128       80.2365123       104.128564                                              
                                 21          194.559385       80.3876405       104.279692                                              
                                 22          194.861641       80.5387688       104.430821                                              
                                 23          195.163897       80.6898970       104.581949                                              
                                 24          195.466154       80.8410252       104.733077                                              
                                 25          195.768410       80.9921534       104.884205                                              
                                 26          196.070667       81.1432816       105.035333                                              
                                 27          196.372923       81.2944098       105.186462                                              
                                 28          196.675179       81.4455380       105.337590                                              
                                 29          196.977436       81.5966662       105.488718                                              
                                 30          197.279692       81.7477944       105.639846                                              
                                 31          197.581949       81.8989226       105.790974                                              
                                 32          197.884205       82.0500508       105.942103                                              
                                 33          198.186462       82.2011790       106.093231                                              
                                 34          198.488718       82.3523072       106.244359                                              
                                 35          198.790974       82.5034354       106.395487                                              
                                 36          199.093231       82.6545636       106.546615                                              
                                 37          199.395487       82.8056918       106.697744                                              
                                 38          199.697744       82.9568200       106.848872                                              
                                 39          200.000000       83.1079482       107.000000                                              
 331              (1,4,5)        1           188.514256       77.5302590       101.257128      01_04_05                                
                                 2           188.816513       77.6813872       101.408256                                              
                                 3           189.118769       77.8325155       101.559385                                              
                                 4           189.421026       77.9836437       101.710513                                              
                                 5           189.723282       78.1347719       101.861641                                              
                                 6           190.025538       78.2859001       102.012769                                              
                                 7           190.327795       78.4370283       102.163897                                              
                                 8           190.630051       78.5881565       102.315026                                              
                                 9           190.932308       78.7392847       102.466154                                              
                                 10          191.234564       78.8904129       102.617282                                              
                                 11          191.536821       79.0415411       102.768410                                              
                                 12          191.839077       79.1926693       102.919538                                              
                                 13          192.141333       79.3437975       103.070667                                              
                                 14          192.443590       79.4949257       103.221795                                              
                                 15          192.745846       79.6460539       103.372923                                              
                                 16          193.048103       79.7971821       103.524051                                              
                                 17          193.350359       79.9483103       103.675179                                              
                                 18          193.652615       80.0994385       103.826308                                              
                                 19          193.954872       80.2505667       103.977436                                              
                                 20          194.257128       80.4016949       104.128564                                              
                                 21          194.559385       80.5528231       104.279692                                              
                                 22          194.861641       80.7039513       104.430821                                              
                                 23          195.163897       80.8550796       104.581949                                              
                                 24          195.466154       81.0062078       104.733077                                              
                                 25          195.768410       81.1573360       104.884205                                              
                                 26          196.070667       81.3084642       105.035333                                              
                                 27          196.372923       81.4595924       105.186462                                              
                                 28          196.675179       81.6107206       105.337590                                              
                                 29          196.977436       81.7618488       105.488718                                              
                                 30          197.279692       81.9129770       105.639846                                              
                                 31          197.581949       82.0641052       105.790974                                              
                                 32          197.884205       82.2152334       105.942103                                              
                                 33          198.186462       82.3663616       106.093231                                              
                                 34          198.488718       82.5174898       106.244359                                              
                                 35          198.790974       82.6686180       106.395487                                              
                                 36          199.093231       82.8197462       106.546615                                              
                                 37          199.395487       82.9708744       106.697744                                              
                                 38          199.697744       83.1220026       106.848872                                              
                                 39          200.000000       83.2731308       107.000000                                              
 332              (1,4,6)        1           188.514256       77.6123435       101.257128      01_04_06                                
                                 2           188.816513       77.7634717       101.408256                                              
                                 3           189.118769       77.9145999       101.559385                                              
                                 4           189.421026       78.0657281       101.710513                                              
                                 5           189.723282       78.2168563       101.861641                                              
                                 6           190.025538       78.3679845       102.012769                                              
                                 7           190.327795       78.5191127       102.163897                                              
                                 8           190.630051       78.6702409       102.315026                                              
                                 9           190.932308       78.8213691       102.466154                                              
                                 10          191.234564       78.9724973       102.617282                                              
                                 11          191.536821       79.1236255       102.768410                                              
                                 12          191.839077       79.2747537       102.919538                                              
                                 13          192.141333       79.4258819       103.070667                                              
                                 14          192.443590       79.5770102       103.221795                                              
                                 15          192.745846       79.7281384       103.372923                                              
                                 16          193.048103       79.8792666       103.524051                                              
                                 17          193.350359       80.0303948       103.675179                                              
                                 18          193.652615       80.1815230       103.826308                                              
                                 19          193.954872       80.3326512       103.977436                                              
                                 20          194.257128       80.4837794       104.128564                                              
                                 21          194.559385       80.6349076       104.279692                                              
                                 22          194.861641       80.7860358       104.430821                                              
                                 23          195.163897       80.9371640       104.581949                                              
                                 24          195.466154       81.0882922       104.733077                                              
                                 25          195.768410       81.2394204       104.884205                                              
                                 26          196.070667       81.3905486       105.035333                                              
                                 27          196.372923       81.5416768       105.186462                                              
                                 28          196.675179       81.6928050       105.337590                                              
                                 29          196.977436       81.8439332       105.488718                                              
                                 30          197.279692       81.9950614       105.639846                                              
                                 31          197.581949       82.1461896       105.790974                                              
                                 32          197.884205       82.2973178       105.942103                                              
                                 33          198.186462       82.4484460       106.093231                                              
                                 34          198.488718       82.5995743       106.244359                                              
                                 35          198.790974       82.7507025       106.395487                                              
                                 36          199.093231       82.9018307       106.546615                                              
                                 37          199.395487       83.0529589       106.697744                                              
                                 38          199.697744       83.2040871       106.848872                                              
                                 39          200.000000       83.3552153       107.000000                                              
 333              (1,4,7)        1           188.514256       77.6209003       101.257128      01_04_07                                
                                 2           188.816513       77.7720285       101.408256                                              
                                 3           189.118769       77.9231567       101.559385                                              
                                 4           189.421026       78.0742849       101.710513                                              
                                 5           189.723282       78.2254131       101.861641                                              
                                 6           190.025538       78.3765413       102.012769                                              
                                 7           190.327795       78.5276695       102.163897                                              
                                 8           190.630051       78.6787977       102.315026                                              
                                 9           190.932308       78.8299260       102.466154                                              
                                 10          191.234564       78.9810542       102.617282                                              
                                 11          191.536821       79.1321824       102.768410                                              
                                 12          191.839077       79.2833106       102.919538                                              
                                 13          192.141333       79.4344388       103.070667                                              
                                 14          192.443590       79.5855670       103.221795                                              
                                 15          192.745846       79.7366952       103.372923                                              
                                 16          193.048103       79.8878234       103.524051                                              
                                 17          193.350359       80.0389516       103.675179                                              
                                 18          193.652615       80.1900798       103.826308                                              
                                 19          193.954872       80.3412080       103.977436                                              
                                 20          194.257128       80.4923362       104.128564                                              
                                 21          194.559385       80.6434644       104.279692                                              
                                 22          194.861641       80.7945926       104.430821                                              
                                 23          195.163897       80.9457208       104.581949                                              
                                 24          195.466154       81.0968490       104.733077                                              
                                 25          195.768410       81.2479772       104.884205                                              
                                 26          196.070667       81.3991054       105.035333                                              
                                 27          196.372923       81.5502336       105.186462                                              
                                 28          196.675179       81.7013618       105.337590                                              
                                 29          196.977436       81.8524901       105.488718                                              
                                 30          197.279692       82.0036183       105.639846                                              
                                 31          197.581949       82.1547465       105.790974                                              
                                 32          197.884205       82.3058747       105.942103                                              
                                 33          198.186462       82.4570029       106.093231                                              
                                 34          198.488718       82.6081311       106.244359                                              
                                 35          198.790974       82.7592593       106.395487                                              
                                 36          199.093231       82.9103875       106.546615                                              
                                 37          199.395487       83.0615157       106.697744                                              
                                 38          199.697744       83.2126439       106.848872                                              
                                 39          200.000000       83.3637721       107.000000                                              
 334              (1,4,8)        1           188.514256       77.5692244       101.257128      01_04_08                                
                                 2           188.816513       77.7203526       101.408256                                              
                                 3           189.118769       77.8714808       101.559385                                              
                                 4           189.421026       78.0226090       101.710513                                              
                                 5           189.723282       78.1737372       101.861641                                              
                                 6           190.025538       78.3248654       102.012769                                              
                                 7           190.327795       78.4759936       102.163897                                              
                                 8           190.630051       78.6271218       102.315026                                              
                                 9           190.932308       78.7782500       102.466154                                              
                                 10          191.234564       78.9293782       102.617282                                              
                                 11          191.536821       79.0805064       102.768410                                              
                                 12          191.839077       79.2316346       102.919538                                              
                                 13          192.141333       79.3827628       103.070667                                              
                                 14          192.443590       79.5338910       103.221795                                              
                                 15          192.745846       79.6850192       103.372923                                              
                                 16          193.048103       79.8361474       103.524051                                              
                                 17          193.350359       79.9872756       103.675179                                              
                                 18          193.652615       80.1384039       103.826308                                              
                                 19          193.954872       80.2895321       103.977436                                              
                                 20          194.257128       80.4406603       104.128564                                              
                                 21          194.559385       80.5917885       104.279692                                              
                                 22          194.861641       80.7429167       104.430821                                              
                                 23          195.163897       80.8940449       104.581949                                              
                                 24          195.466154       81.0451731       104.733077                                              
                                 25          195.768410       81.1963013       104.884205                                              
                                 26          196.070667       81.3474295       105.035333                                              
                                 27          196.372923       81.4985577       105.186462                                              
                                 28          196.675179       81.6496859       105.337590                                              
                                 29          196.977436       81.8008141       105.488718                                              
                                 30          197.279692       81.9519423       105.639846                                              
                                 31          197.581949       82.1030705       105.790974                                              
                                 32          197.884205       82.2541987       105.942103                                              
                                 33          198.186462       82.4053269       106.093231                                              
                                 34          198.488718       82.5564551       106.244359                                              
                                 35          198.790974       82.7075833       106.395487                                              
                                 36          199.093231       82.8587115       106.546615                                              
                                 37          199.395487       83.0098398       106.697744                                              
                                 38          199.697744       83.1609680       106.848872                                              
                                 39          200.000000       83.3120962       107.000000                                              
 335              (1,4,9)        1           188.514256       77.4796171       101.257128      01_04_09                                
                                 2           188.816513       77.6307453       101.408256                                              
                                 3           189.118769       77.7818735       101.559385                                              
                                 4           189.421026       77.9330017       101.710513                                              
                                 5           189.723282       78.0841299       101.861641                                              
                                 6           190.025538       78.2352581       102.012769                                              
                                 7           190.327795       78.3863863       102.163897                                              
                                 8           190.630051       78.5375145       102.315026                                              
                                 9           190.932308       78.6886427       102.466154                                              
                                 10          191.234564       78.8397709       102.617282                                              
                                 11          191.536821       78.9908991       102.768410                                              
                                 12          191.839077       79.1420273       102.919538                                              
                                 13          192.141333       79.2931555       103.070667                                              
                                 14          192.443590       79.4442837       103.221795                                              
                                 15          192.745846       79.5954120       103.372923                                              
                                 16          193.048103       79.7465402       103.524051                                              
                                 17          193.350359       79.8976684       103.675179                                              
                                 18          193.652615       80.0487966       103.826308                                              
                                 19          193.954872       80.1999248       103.977436                                              
                                 20          194.257128       80.3510530       104.128564                                              
                                 21          194.559385       80.5021812       104.279692                                              
                                 22          194.861641       80.6533094       104.430821                                              
                                 23          195.163897       80.8044376       104.581949                                              
                                 24          195.466154       80.9555658       104.733077                                              
                                 25          195.768410       81.1066940       104.884205                                              
                                 26          196.070667       81.2578222       105.035333                                              
                                 27          196.372923       81.4089504       105.186462                                              
                                 28          196.675179       81.5600786       105.337590                                              
                                 29          196.977436       81.7112068       105.488718                                              
                                 30          197.279692       81.8623350       105.639846                                              
                                 31          197.581949       82.0134632       105.790974                                              
                                 32          197.884205       82.1645914       105.942103                                              
                                 33          198.186462       82.3157196       106.093231                                              
                                 34          198.488718       82.4668479       106.244359                                              
                                 35          198.790974       82.6179761       106.395487                                              
                                 36          199.093231       82.7691043       106.546615                                              
                                 37          199.395487       82.9202325       106.697744                                              
                                 38          199.697744       83.0713607       106.848872                                              
                                 39          200.000000       83.2224889       107.000000                                              
 336              (1,4,10)       1           188.514256       77.3933838       101.257128      01_04_10                                
                                 2           188.816513       77.5445120       101.408256                                              
                                 3           189.118769       77.6956402       101.559385                                              
                                 4           189.421026       77.8467684       101.710513                                              
                                 5           189.723282       77.9978966       101.861641                                              
                                 6           190.025538       78.1490248       102.012769                                              
                                 7           190.327795       78.3001531       102.163897                                              
                                 8           190.630051       78.4512813       102.315026                                              
                                 9           190.932308       78.6024095       102.466154                                              
                                 10          191.234564       78.7535377       102.617282                                              
                                 11          191.536821       78.9046659       102.768410                                              
                                 12          191.839077       79.0557941       102.919538                                              
                                 13          192.141333       79.2069223       103.070667                                              
                                 14          192.443590       79.3580505       103.221795                                              
                                 15          192.745846       79.5091787       103.372923                                              
                                 16          193.048103       79.6603069       103.524051                                              
                                 17          193.350359       79.8114351       103.675179                                              
                                 18          193.652615       79.9625633       103.826308                                              
                                 19          193.954872       80.1136915       103.977436                                              
                                 20          194.257128       80.2648197       104.128564                                              
                                 21          194.559385       80.4159479       104.279692                                              
                                 22          194.861641       80.5670761       104.430821                                              
                                 23          195.163897       80.7182043       104.581949                                              
                                 24          195.466154       80.8693325       104.733077                                              
                                 25          195.768410       81.0204607       104.884205                                              
                                 26          196.070667       81.1715889       105.035333                                              
                                 27          196.372923       81.3227172       105.186462                                              
                                 28          196.675179       81.4738454       105.337590                                              
                                 29          196.977436       81.6249736       105.488718                                              
                                 30          197.279692       81.7761018       105.639846                                              
                                 31          197.581949       81.9272300       105.790974                                              
                                 32          197.884205       82.0783582       105.942103                                              
                                 33          198.186462       82.2294864       106.093231                                              
                                 34          198.488718       82.3806146       106.244359                                              
                                 35          198.790974       82.5317428       106.395487                                              
                                 36          199.093231       82.6828710       106.546615                                              
                                 37          199.395487       82.8339992       106.697744                                              
                                 38          199.697744       82.9851274       106.848872                                              
                                 39          200.000000       83.1362556       107.000000                                              
 337              (1,5,1)        1           188.514256       79.4615387       101.257128      01_05_01                                
                                 2           188.816513       79.6126669       101.408256                                              
                                 3           189.118769       79.7637951       101.559385                                              
                                 4           189.421026       79.9149233       101.710513                                              
                                 5           189.723282       80.0660515       101.861641                                              
                                 6           190.025538       80.2171797       102.012769                                              
                                 7           190.327795       80.3683079       102.163897                                              
                                 8           190.630051       80.5194361       102.315026                                              
                                 9           190.932308       80.6705643       102.466154                                              
                                 10          191.234564       80.8216925       102.617282                                              
                                 11          191.536821       80.9728207       102.768410                                              
                                 12          191.839077       81.1239489       102.919538                                              
                                 13          192.141333       81.2750771       103.070667                                              
                                 14          192.443590       81.4262053       103.221795                                              
                                 15          192.745846       81.5773335       103.372923                                              
                                 16          193.048103       81.7284617       103.524051                                              
                                 17          193.350359       81.8795899       103.675179                                              
                                 18          193.652615       82.0307181       103.826308                                              
                                 19          193.954872       82.1818463       103.977436                                              
                                 20          194.257128       82.3329745       104.128564                                              
                                 21          194.559385       82.4841028       104.279692                                              
                                 22          194.861641       82.6352310       104.430821                                              
                                 23          195.163897       82.7863592       104.581949                                              
                                 24          195.466154       82.9374874       104.733077                                              
                                 25          195.768410       83.0886156       104.884205                                              
                                 26          196.070667       83.2397438       105.035333                                              
                                 27          196.372923       83.3908720       105.186462                                              
                                 28          196.675179       83.5420002       105.337590                                              
                                 29          196.977436       83.6931284       105.488718                                              
                                 30          197.279692       83.8442566       105.639846                                              
                                 31          197.581949       83.9953848       105.790974                                              
                                 32          197.884205       84.1465130       105.942103                                              
                                 33          198.186462       84.2976412       106.093231                                              
                                 34          198.488718       84.4487694       106.244359                                              
                                 35          198.790974       84.5998976       106.395487                                              
                                 36          199.093231       84.7510258       106.546615                                              
                                 37          199.395487       84.9021540       106.697744                                              
                                 38          199.697744       85.0532822       106.848872                                              
                                 39          200.000000       85.2044104       107.000000                                              
 338              (1,5,2)        1           188.514256       79.5713321       101.257128      01_05_02                                
                                 2           188.816513       79.7224603       101.408256                                              
                                 3           189.118769       79.8735885       101.559385                                              
                                 4           189.421026       80.0247167       101.710513                                              
                                 5           189.723282       80.1758449       101.861641                                              
                                 6           190.025538       80.3269731       102.012769                                              
                                 7           190.327795       80.4781013       102.163897                                              
                                 8           190.630051       80.6292295       102.315026                                              
                                 9           190.932308       80.7803577       102.466154                                              
                                 10          191.234564       80.9314859       102.617282                                              
                                 11          191.536821       81.0826142       102.768410                                              
                                 12          191.839077       81.2337424       102.919538                                              
                                 13          192.141333       81.3848706       103.070667                                              
                                 14          192.443590       81.5359988       103.221795                                              
                                 15          192.745846       81.6871270       103.372923                                              
                                 16          193.048103       81.8382552       103.524051                                              
                                 17          193.350359       81.9893834       103.675179                                              
                                 18          193.652615       82.1405116       103.826308                                              
                                 19          193.954872       82.2916398       103.977436                                              
                                 20          194.257128       82.4427680       104.128564                                              
                                 21          194.559385       82.5938962       104.279692                                              
                                 22          194.861641       82.7450244       104.430821                                              
                                 23          195.163897       82.8961526       104.581949                                              
                                 24          195.466154       83.0472808       104.733077                                              
                                 25          195.768410       83.1984090       104.884205                                              
                                 26          196.070667       83.3495372       105.035333                                              
                                 27          196.372923       83.5006654       105.186462                                              
                                 28          196.675179       83.6517936       105.337590                                              
                                 29          196.977436       83.8029218       105.488718                                              
                                 30          197.279692       83.9540501       105.639846                                              
                                 31          197.581949       84.1051783       105.790974                                              
                                 32          197.884205       84.2563065       105.942103                                              
                                 33          198.186462       84.4074347       106.093231                                              
                                 34          198.488718       84.5585629       106.244359                                              
                                 35          198.790974       84.7096911       106.395487                                              
                                 36          199.093231       84.8608193       106.546615                                              
                                 37          199.395487       85.0119475       106.697744                                              
                                 38          199.697744       85.1630757       106.848872                                              
                                 39          200.000000       85.3142039       107.000000                                              
 339              (1,5,3)        1           188.514256       79.7082931       101.257128      01_05_03                                
                                 2           188.816513       79.8594213       101.408256                                              
                                 3           189.118769       80.0105496       101.559385                                              
                                 4           189.421026       80.1616778       101.710513                                              
                                 5           189.723282       80.3128060       101.861641                                              
                                 6           190.025538       80.4639342       102.012769                                              
                                 7           190.327795       80.6150624       102.163897                                              
                                 8           190.630051       80.7661906       102.315026                                              
                                 9           190.932308       80.9173188       102.466154                                              
                                 10          191.234564       81.0684470       102.617282                                              
                                 11          191.536821       81.2195752       102.768410                                              
                                 12          191.839077       81.3707034       102.919538                                              
                                 13          192.141333       81.5218316       103.070667                                              
                                 14          192.443590       81.6729598       103.221795                                              
                                 15          192.745846       81.8240880       103.372923                                              
                                 16          193.048103       81.9752162       103.524051                                              
                                 17          193.350359       82.1263444       103.675179                                              
                                 18          193.652615       82.2774726       103.826308                                              
                                 19          193.954872       82.4286008       103.977436                                              
                                 20          194.257128       82.5797290       104.128564                                              
                                 21          194.559385       82.7308572       104.279692                                              
                                 22          194.861641       82.8819854       104.430821                                              
                                 23          195.163897       83.0331137       104.581949                                              
                                 24          195.466154       83.1842419       104.733077                                              
                                 25          195.768410       83.3353701       104.884205                                              
                                 26          196.070667       83.4864983       105.035333                                              
                                 27          196.372923       83.6376265       105.186462                                              
                                 28          196.675179       83.7887547       105.337590                                              
                                 29          196.977436       83.9398829       105.488718                                              
                                 30          197.279692       84.0910111       105.639846                                              
                                 31          197.581949       84.2421393       105.790974                                              
                                 32          197.884205       84.3932675       105.942103                                              
                                 33          198.186462       84.5443957       106.093231                                              
                                 34          198.488718       84.6955239       106.244359                                              
                                 35          198.790974       84.8466521       106.395487                                              
                                 36          199.093231       84.9977803       106.546615                                              
                                 37          199.395487       85.1489085       106.697744                                              
                                 38          199.697744       85.3000367       106.848872                                              
                                 39          200.000000       85.4511649       107.000000                                              
 340              (1,5,4)        1           188.514256       79.8340420       101.257128      01_05_04                                
                                 2           188.816513       79.9851702       101.408256                                              
                                 3           189.118769       80.1362984       101.559385                                              
                                 4           189.421026       80.2874266       101.710513                                              
                                 5           189.723282       80.4385548       101.861641                                              
                                 6           190.025538       80.5896830       102.012769                                              
                                 7           190.327795       80.7408112       102.163897                                              
                                 8           190.630051       80.8919394       102.315026                                              
                                 9           190.932308       81.0430676       102.466154                                              
                                 10          191.234564       81.1941958       102.617282                                              
                                 11          191.536821       81.3453240       102.768410                                              
                                 12          191.839077       81.4964522       102.919538                                              
                                 13          192.141333       81.6475804       103.070667                                              
                                 14          192.443590       81.7987086       103.221795                                              
                                 15          192.745846       81.9498368       103.372923                                              
                                 16          193.048103       82.1009650       103.524051                                              
                                 17          193.350359       82.2520933       103.675179                                              
                                 18          193.652615       82.4032215       103.826308                                              
                                 19          193.954872       82.5543497       103.977436                                              
                                 20          194.257128       82.7054779       104.128564                                              
                                 21          194.559385       82.8566061       104.279692                                              
                                 22          194.861641       83.0077343       104.430821                                              
                                 23          195.163897       83.1588625       104.581949                                              
                                 24          195.466154       83.3099907       104.733077                                              
                                 25          195.768410       83.4611189       104.884205                                              
                                 26          196.070667       83.6122471       105.035333                                              
                                 27          196.372923       83.7633753       105.186462                                              
                                 28          196.675179       83.9145035       105.337590                                              
                                 29          196.977436       84.0656317       105.488718                                              
                                 30          197.279692       84.2167599       105.639846                                              
                                 31          197.581949       84.3678881       105.790974                                              
                                 32          197.884205       84.5190163       105.942103                                              
                                 33          198.186462       84.6701445       106.093231                                              
                                 34          198.488718       84.8212727       106.244359                                              
                                 35          198.790974       84.9724009       106.395487                                              
                                 36          199.093231       85.1235291       106.546615                                              
                                 37          199.395487       85.2746574       106.697744                                              
                                 38          199.697744       85.4257856       106.848872                                              
                                 39          200.000000       85.5769138       107.000000                                              
 341              (1,5,5)        1           188.514256       79.9310315       101.257128      01_05_05                                
                                 2           188.816513       80.0821597       101.408256                                              
                                 3           189.118769       80.2332879       101.559385                                              
                                 4           189.421026       80.3844161       101.710513                                              
                                 5           189.723282       80.5355443       101.861641                                              
                                 6           190.025538       80.6866725       102.012769                                              
                                 7           190.327795       80.8378007       102.163897                                              
                                 8           190.630051       80.9889289       102.315026                                              
                                 9           190.932308       81.1400571       102.466154                                              
                                 10          191.234564       81.2911853       102.617282                                              
                                 11          191.536821       81.4423135       102.768410                                              
                                 12          191.839077       81.5934417       102.919538                                              
                                 13          192.141333       81.7445699       103.070667                                              
                                 14          192.443590       81.8956981       103.221795                                              
                                 15          192.745846       82.0468263       103.372923                                              
                                 16          193.048103       82.1979545       103.524051                                              
                                 17          193.350359       82.3490827       103.675179                                              
                                 18          193.652615       82.5002110       103.826308                                              
                                 19          193.954872       82.6513392       103.977436                                              
                                 20          194.257128       82.8024674       104.128564                                              
                                 21          194.559385       82.9535956       104.279692                                              
                                 22          194.861641       83.1047238       104.430821                                              
                                 23          195.163897       83.2558520       104.581949                                              
                                 24          195.466154       83.4069802       104.733077                                              
                                 25          195.768410       83.5581084       104.884205                                              
                                 26          196.070667       83.7092366       105.035333                                              
                                 27          196.372923       83.8603648       105.186462                                              
                                 28          196.675179       84.0114930       105.337590                                              
                                 29          196.977436       84.1626212       105.488718                                              
                                 30          197.279692       84.3137494       105.639846                                              
                                 31          197.581949       84.4648776       105.790974                                              
                                 32          197.884205       84.6160058       105.942103                                              
                                 33          198.186462       84.7671340       106.093231                                              
                                 34          198.488718       84.9182622       106.244359                                              
                                 35          198.790974       85.0693904       106.395487                                              
                                 36          199.093231       85.2205186       106.546615                                              
                                 37          199.395487       85.3716469       106.697744                                              
                                 38          199.697744       85.5227751       106.848872                                              
                                 39          200.000000       85.6739033       107.000000                                              
 342              (1,5,6)        1           188.514256       79.9928855       101.257128      01_05_06                                
                                 2           188.816513       80.1440137       101.408256                                              
                                 3           189.118769       80.2951419       101.559385                                              
                                 4           189.421026       80.4462701       101.710513                                              
                                 5           189.723282       80.5973983       101.861641                                              
                                 6           190.025538       80.7485265       102.012769                                              
                                 7           190.327795       80.8996547       102.163897                                              
                                 8           190.630051       81.0507829       102.315026                                              
                                 9           190.932308       81.2019111       102.466154                                              
                                 10          191.234564       81.3530393       102.617282                                              
                                 11          191.536821       81.5041675       102.768410                                              
                                 12          191.839077       81.6552957       102.919538                                              
                                 13          192.141333       81.8064239       103.070667                                              
                                 14          192.443590       81.9575521       103.221795                                              
                                 15          192.745846       82.1086803       103.372923                                              
                                 16          193.048103       82.2598085       103.524051                                              
                                 17          193.350359       82.4109367       103.675179                                              
                                 18          193.652615       82.5620649       103.826308                                              
                                 19          193.954872       82.7131932       103.977436                                              
                                 20          194.257128       82.8643214       104.128564                                              
                                 21          194.559385       83.0154496       104.279692                                              
                                 22          194.861641       83.1665778       104.430821                                              
                                 23          195.163897       83.3177060       104.581949                                              
                                 24          195.466154       83.4688342       104.733077                                              
                                 25          195.768410       83.6199624       104.884205                                              
                                 26          196.070667       83.7710906       105.035333                                              
                                 27          196.372923       83.9222188       105.186462                                              
                                 28          196.675179       84.0733470       105.337590                                              
                                 29          196.977436       84.2244752       105.488718                                              
                                 30          197.279692       84.3756034       105.639846                                              
                                 31          197.581949       84.5267316       105.790974                                              
                                 32          197.884205       84.6778598       105.942103                                              
                                 33          198.186462       84.8289880       106.093231                                              
                                 34          198.488718       84.9801162       106.244359                                              
                                 35          198.790974       85.1312444       106.395487                                              
                                 36          199.093231       85.2823726       106.546615                                              
                                 37          199.395487       85.4335008       106.697744                                              
                                 38          199.697744       85.5846291       106.848872                                              
                                 39          200.000000       85.7357573       107.000000                                              
 343              (1,5,7)        1           188.514256       80.0205550       101.257128      01_05_07                                
                                 2           188.816513       80.1716832       101.408256                                              
                                 3           189.118769       80.3228115       101.559385                                              
                                 4           189.421026       80.4739397       101.710513                                              
                                 5           189.723282       80.6250679       101.861641                                              
                                 6           190.025538       80.7761961       102.012769                                              
                                 7           190.327795       80.9273243       102.163897                                              
                                 8           190.630051       81.0784525       102.315026                                              
                                 9           190.932308       81.2295807       102.466154                                              
                                 10          191.234564       81.3807089       102.617282                                              
                                 11          191.536821       81.5318371       102.768410                                              
                                 12          191.839077       81.6829653       102.919538                                              
                                 13          192.141333       81.8340935       103.070667                                              
                                 14          192.443590       81.9852217       103.221795                                              
                                 15          192.745846       82.1363499       103.372923                                              
                                 16          193.048103       82.2874781       103.524051                                              
                                 17          193.350359       82.4386063       103.675179                                              
                                 18          193.652615       82.5897345       103.826308                                              
                                 19          193.954872       82.7408627       103.977436                                              
                                 20          194.257128       82.8919909       104.128564                                              
                                 21          194.559385       83.0431191       104.279692                                              
                                 22          194.861641       83.1942474       104.430821                                              
                                 23          195.163897       83.3453756       104.581949                                              
                                 24          195.466154       83.4965038       104.733077                                              
                                 25          195.768410       83.6476320       104.884205                                              
                                 26          196.070667       83.7987602       105.035333                                              
                                 27          196.372923       83.9498884       105.186462                                              
                                 28          196.675179       84.1010166       105.337590                                              
                                 29          196.977436       84.2521448       105.488718                                              
                                 30          197.279692       84.4032730       105.639846                                              
                                 31          197.581949       84.5544012       105.790974                                              
                                 32          197.884205       84.7055294       105.942103                                              
                                 33          198.186462       84.8566576       106.093231                                              
                                 34          198.488718       85.0077858       106.244359                                              
                                 35          198.790974       85.1589140       106.395487                                              
                                 36          199.093231       85.3100422       106.546615                                              
                                 37          199.395487       85.4611704       106.697744                                              
                                 38          199.697744       85.6122986       106.848872                                              
                                 39          200.000000       85.7634268       107.000000                                              
 344              (1,5,8)        1           188.514256       80.0208545       101.257128      01_05_08                                
                                 2           188.816513       80.1719827       101.408256                                              
                                 3           189.118769       80.3231109       101.559385                                              
                                 4           189.421026       80.4742391       101.710513                                              
                                 5           189.723282       80.6253673       101.861641                                              
                                 6           190.025538       80.7764955       102.012769                                              
                                 7           190.327795       80.9276237       102.163897                                              
                                 8           190.630051       81.0787519       102.315026                                              
                                 9           190.932308       81.2298802       102.466154                                              
                                 10          191.234564       81.3810084       102.617282                                              
                                 11          191.536821       81.5321366       102.768410                                              
                                 12          191.839077       81.6832648       102.919538                                              
                                 13          192.141333       81.8343930       103.070667                                              
                                 14          192.443590       81.9855212       103.221795                                              
                                 15          192.745846       82.1366494       103.372923                                              
                                 16          193.048103       82.2877776       103.524051                                              
                                 17          193.350359       82.4389058       103.675179                                              
                                 18          193.652615       82.5900340       103.826308                                              
                                 19          193.954872       82.7411622       103.977436                                              
                                 20          194.257128       82.8922904       104.128564                                              
                                 21          194.559385       83.0434186       104.279692                                              
                                 22          194.861641       83.1945468       104.430821                                              
                                 23          195.163897       83.3456750       104.581949                                              
                                 24          195.466154       83.4968032       104.733077                                              
                                 25          195.768410       83.6479314       104.884205                                              
                                 26          196.070667       83.7990596       105.035333                                              
                                 27          196.372923       83.9501878       105.186462                                              
                                 28          196.675179       84.1013160       105.337590                                              
                                 29          196.977436       84.2524443       105.488718                                              
                                 30          197.279692       84.4035725       105.639846                                              
                                 31          197.581949       84.5547007       105.790974                                              
                                 32          197.884205       84.7058289       105.942103                                              
                                 33          198.186462       84.8569571       106.093231                                              
                                 34          198.488718       85.0080853       106.244359                                              
                                 35          198.790974       85.1592135       106.395487                                              
                                 36          199.093231       85.3103417       106.546615                                              
                                 37          199.395487       85.4614699       106.697744                                              
                                 38          199.697744       85.6125981       106.848872                                              
                                 39          200.000000       85.7637263       107.000000                                              
 345              (1,5,9)        1           188.514256       80.0057346       101.257128      01_05_09                                
                                 2           188.816513       80.1568628       101.408256                                              
                                 3           189.118769       80.3079910       101.559385                                              
                                 4           189.421026       80.4591192       101.710513                                              
                                 5           189.723282       80.6102474       101.861641                                              
                                 6           190.025538       80.7613756       102.012769                                              
                                 7           190.327795       80.9125038       102.163897                                              
                                 8           190.630051       81.0636320       102.315026                                              
                                 9           190.932308       81.2147602       102.466154                                              
                                 10          191.234564       81.3658884       102.617282                                              
                                 11          191.536821       81.5170167       102.768410                                              
                                 12          191.839077       81.6681449       102.919538                                              
                                 13          192.141333       81.8192731       103.070667                                              
                                 14          192.443590       81.9704013       103.221795                                              
                                 15          192.745846       82.1215295       103.372923                                              
                                 16          193.048103       82.2726577       103.524051                                              
                                 17          193.350359       82.4237859       103.675179                                              
                                 18          193.652615       82.5749141       103.826308                                              
                                 19          193.954872       82.7260423       103.977436                                              
                                 20          194.257128       82.8771705       104.128564                                              
                                 21          194.559385       83.0282987       104.279692                                              
                                 22          194.861641       83.1794269       104.430821                                              
                                 23          195.163897       83.3305551       104.581949                                              
                                 24          195.466154       83.4816833       104.733077                                              
                                 25          195.768410       83.6328115       104.884205                                              
                                 26          196.070667       83.7839397       105.035333                                              
                                 27          196.372923       83.9350679       105.186462                                              
                                 28          196.675179       84.0861961       105.337590                                              
                                 29          196.977436       84.2373243       105.488718                                              
                                 30          197.279692       84.3884526       105.639846                                              
                                 31          197.581949       84.5395808       105.790974                                              
                                 32          197.884205       84.6907090       105.942103                                              
                                 33          198.186462       84.8418372       106.093231                                              
                                 34          198.488718       84.9929654       106.244359                                              
                                 35          198.790974       85.1440936       106.395487                                              
                                 36          199.093231       85.2952218       106.546615                                              
                                 37          199.395487       85.4463500       106.697744                                              
                                 38          199.697744       85.5974782       106.848872                                              
                                 39          200.000000       85.7486064       107.000000                                              
 346              (1,5,10)       1           188.514256       79.9909066       101.257128      01_05_10                                
                                 2           188.816513       80.1420348       101.408256                                              
                                 3           189.118769       80.2931630       101.559385                                              
                                 4           189.421026       80.4442912       101.710513                                              
                                 5           189.723282       80.5954194       101.861641                                              
                                 6           190.025538       80.7465476       102.012769                                              
                                 7           190.327795       80.8976758       102.163897                                              
                                 8           190.630051       81.0488040       102.315026                                              
                                 9           190.932308       81.1999323       102.466154                                              
                                 10          191.234564       81.3510605       102.617282                                              
                                 11          191.536821       81.5021887       102.768410                                              
                                 12          191.839077       81.6533169       102.919538                                              
                                 13          192.141333       81.8044451       103.070667                                              
                                 14          192.443590       81.9555733       103.221795                                              
                                 15          192.745846       82.1067015       103.372923                                              
                                 16          193.048103       82.2578297       103.524051                                              
                                 17          193.350359       82.4089579       103.675179                                              
                                 18          193.652615       82.5600861       103.826308                                              
                                 19          193.954872       82.7112143       103.977436                                              
                                 20          194.257128       82.8623425       104.128564                                              
                                 21          194.559385       83.0134707       104.279692                                              
                                 22          194.861641       83.1645989       104.430821                                              
                                 23          195.163897       83.3157271       104.581949                                              
                                 24          195.466154       83.4668553       104.733077                                              
                                 25          195.768410       83.6179835       104.884205                                              
                                 26          196.070667       83.7691117       105.035333                                              
                                 27          196.372923       83.9202399       105.186462                                              
                                 28          196.675179       84.0713682       105.337590                                              
                                 29          196.977436       84.2224964       105.488718                                              
                                 30          197.279692       84.3736246       105.639846                                              
                                 31          197.581949       84.5247528       105.790974                                              
                                 32          197.884205       84.6758810       105.942103                                              
                                 33          198.186462       84.8270092       106.093231                                              
                                 34          198.488718       84.9781374       106.244359                                              
                                 35          198.790974       85.1292656       106.395487                                              
                                 36          199.093231       85.2803938       106.546615                                              
                                 37          199.395487       85.4315220       106.697744                                              
                                 38          199.697744       85.5826502       106.848872                                              
                                 39          200.000000       85.7337784       107.000000                                              
 347              (1,6,1)        1           188.514256       82.2522735       101.257128      01_06_01                                
                                 2           188.816513       82.4034017       101.408256                                              
                                 3           189.118769       82.5545299       101.559385                                              
                                 4           189.421026       82.7056581       101.710513                                              
                                 5           189.723282       82.8567864       101.861641                                              
                                 6           190.025538       83.0079146       102.012769                                              
                                 7           190.327795       83.1590428       102.163897                                              
                                 8           190.630051       83.3101710       102.315026                                              
                                 9           190.932308       83.4612992       102.466154                                              
                                 10          191.234564       83.6124274       102.617282                                              
                                 11          191.536821       83.7635556       102.768410                                              
                                 12          191.839077       83.9146838       102.919538                                              
                                 13          192.141333       84.0658120       103.070667                                              
                                 14          192.443590       84.2169402       103.221795                                              
                                 15          192.745846       84.3680684       103.372923                                              
                                 16          193.048103       84.5191966       103.524051                                              
                                 17          193.350359       84.6703248       103.675179                                              
                                 18          193.652615       84.8214530       103.826308                                              
                                 19          193.954872       84.9725812       103.977436                                              
                                 20          194.257128       85.1237094       104.128564                                              
                                 21          194.559385       85.2748376       104.279692                                              
                                 22          194.861641       85.4259658       104.430821                                              
                                 23          195.163897       85.5770940       104.581949                                              
                                 24          195.466154       85.7282223       104.733077                                              
                                 25          195.768410       85.8793505       104.884205                                              
                                 26          196.070667       86.0304787       105.035333                                              
                                 27          196.372923       86.1816069       105.186462                                              
                                 28          196.675179       86.3327351       105.337590                                              
                                 29          196.977436       86.4838633       105.488718                                              
                                 30          197.279692       86.6349915       105.639846                                              
                                 31          197.581949       86.7861197       105.790974                                              
                                 32          197.884205       86.9372479       105.942103                                              
                                 33          198.186462       87.0883761       106.093231                                              
                                 34          198.488718       87.2395043       106.244359                                              
                                 35          198.790974       87.3906325       106.395487                                              
                                 36          199.093231       87.5417607       106.546615                                              
                                 37          199.395487       87.6928889       106.697744                                              
                                 38          199.697744       87.8440171       106.848872                                              
                                 39          200.000000       87.9951453       107.000000                                              
 348              (1,6,2)        1           188.514256       82.2901178       101.257128      01_06_02                                
                                 2           188.816513       82.4412460       101.408256                                              
                                 3           189.118769       82.5923742       101.559385                                              
                                 4           189.421026       82.7435024       101.710513                                              
                                 5           189.723282       82.8946306       101.861641                                              
                                 6           190.025538       83.0457588       102.012769                                              
                                 7           190.327795       83.1968870       102.163897                                              
                                 8           190.630051       83.3480152       102.315026                                              
                                 9           190.932308       83.4991434       102.466154                                              
                                 10          191.234564       83.6502716       102.617282                                              
                                 11          191.536821       83.8013998       102.768410                                              
                                 12          191.839077       83.9525280       102.919538                                              
                                 13          192.141333       84.1036562       103.070667                                              
                                 14          192.443590       84.2547844       103.221795                                              
                                 15          192.745846       84.4059126       103.372923                                              
                                 16          193.048103       84.5570408       103.524051                                              
                                 17          193.350359       84.7081691       103.675179                                              
                                 18          193.652615       84.8592973       103.826308                                              
                                 19          193.954872       85.0104255       103.977436                                              
                                 20          194.257128       85.1615537       104.128564                                              
                                 21          194.559385       85.3126819       104.279692                                              
                                 22          194.861641       85.4638101       104.430821                                              
                                 23          195.163897       85.6149383       104.581949                                              
                                 24          195.466154       85.7660665       104.733077                                              
                                 25          195.768410       85.9171947       104.884205                                              
                                 26          196.070667       86.0683229       105.035333                                              
                                 27          196.372923       86.2194511       105.186462                                              
                                 28          196.675179       86.3705793       105.337590                                              
                                 29          196.977436       86.5217075       105.488718                                              
                                 30          197.279692       86.6728357       105.639846                                              
                                 31          197.581949       86.8239639       105.790974                                              
                                 32          197.884205       86.9750921       105.942103                                              
                                 33          198.186462       87.1262203       106.093231                                              
                                 34          198.488718       87.2773485       106.244359                                              
                                 35          198.790974       87.4284767       106.395487                                              
                                 36          199.093231       87.5796050       106.546615                                              
                                 37          199.395487       87.7307332       106.697744                                              
                                 38          199.697744       87.8818614       106.848872                                              
                                 39          200.000000       88.0329896       107.000000                                              
 349              (1,6,3)        1           188.514256       82.3494616       101.257128      01_06_03                                
                                 2           188.816513       82.5005898       101.408256                                              
                                 3           189.118769       82.6517181       101.559385                                              
                                 4           189.421026       82.8028463       101.710513                                              
                                 5           189.723282       82.9539745       101.861641                                              
                                 6           190.025538       83.1051027       102.012769                                              
                                 7           190.327795       83.2562309       102.163897                                              
                                 8           190.630051       83.4073591       102.315026                                              
                                 9           190.932308       83.5584873       102.466154                                              
                                 10          191.234564       83.7096155       102.617282                                              
                                 11          191.536821       83.8607437       102.768410                                              
                                 12          191.839077       84.0118719       102.919538                                              
                                 13          192.141333       84.1630001       103.070667                                              
                                 14          192.443590       84.3141283       103.221795                                              
                                 15          192.745846       84.4652565       103.372923                                              
                                 16          193.048103       84.6163847       103.524051                                              
                                 17          193.350359       84.7675129       103.675179                                              
                                 18          193.652615       84.9186411       103.826308                                              
                                 19          193.954872       85.0697693       103.977436                                              
                                 20          194.257128       85.2208975       104.128564                                              
                                 21          194.559385       85.3720257       104.279692                                              
                                 22          194.861641       85.5231539       104.430821                                              
                                 23          195.163897       85.6742822       104.581949                                              
                                 24          195.466154       85.8254104       104.733077                                              
                                 25          195.768410       85.9765386       104.884205                                              
                                 26          196.070667       86.1276668       105.035333                                              
                                 27          196.372923       86.2787950       105.186462                                              
                                 28          196.675179       86.4299232       105.337590                                              
                                 29          196.977436       86.5810514       105.488718                                              
                                 30          197.279692       86.7321796       105.639846                                              
                                 31          197.581949       86.8833078       105.790974                                              
                                 32          197.884205       87.0344360       105.942103                                              
                                 33          198.186462       87.1855642       106.093231                                              
                                 34          198.488718       87.3366924       106.244359                                              
                                 35          198.790974       87.4878206       106.395487                                              
                                 36          199.093231       87.6389488       106.546615                                              
                                 37          199.395487       87.7900770       106.697744                                              
                                 38          199.697744       87.9412052       106.848872                                              
                                 39          200.000000       88.0923334       107.000000                                              
 350              (1,6,4)        1           188.514256       82.4130639       101.257128      01_06_04                                
                                 2           188.816513       82.5641921       101.408256                                              
                                 3           189.118769       82.7153203       101.559385                                              
                                 4           189.421026       82.8664485       101.710513                                              
                                 5           189.723282       83.0175767       101.861641                                              
                                 6           190.025538       83.1687049       102.012769                                              
                                 7           190.327795       83.3198331       102.163897                                              
                                 8           190.630051       83.4709613       102.315026                                              
                                 9           190.932308       83.6220895       102.466154                                              
                                 10          191.234564       83.7732177       102.617282                                              
                                 11          191.536821       83.9243460       102.768410                                              
                                 12          191.839077       84.0754742       102.919538                                              
                                 13          192.141333       84.2266024       103.070667                                              
                                 14          192.443590       84.3777306       103.221795                                              
                                 15          192.745846       84.5288588       103.372923                                              
                                 16          193.048103       84.6799870       103.524051                                              
                                 17          193.350359       84.8311152       103.675179                                              
                                 18          193.652615       84.9822434       103.826308                                              
                                 19          193.954872       85.1333716       103.977436                                              
                                 20          194.257128       85.2844998       104.128564                                              
                                 21          194.559385       85.4356280       104.279692                                              
                                 22          194.861641       85.5867562       104.430821                                              
                                 23          195.163897       85.7378844       104.581949                                              
                                 24          195.466154       85.8890126       104.733077                                              
                                 25          195.768410       86.0401408       104.884205                                              
                                 26          196.070667       86.1912690       105.035333                                              
                                 27          196.372923       86.3423972       105.186462                                              
                                 28          196.675179       86.4935254       105.337590                                              
                                 29          196.977436       86.6446536       105.488718                                              
                                 30          197.279692       86.7957818       105.639846                                              
                                 31          197.581949       86.9469101       105.790974                                              
                                 32          197.884205       87.0980383       105.942103                                              
                                 33          198.186462       87.2491665       106.093231                                              
                                 34          198.488718       87.4002947       106.244359                                              
                                 35          198.790974       87.5514229       106.395487                                              
                                 36          199.093231       87.7025511       106.546615                                              
                                 37          199.395487       87.8536793       106.697744                                              
                                 38          199.697744       88.0048075       106.848872                                              
                                 39          200.000000       88.1559357       107.000000                                              
 351              (1,6,5)        1           188.514256       82.4676578       101.257128      01_06_05                                
                                 2           188.816513       82.6187860       101.408256                                              
                                 3           189.118769       82.7699142       101.559385                                              
                                 4           189.421026       82.9210424       101.710513                                              
                                 5           189.723282       83.0721706       101.861641                                              
                                 6           190.025538       83.2232988       102.012769                                              
                                 7           190.327795       83.3744270       102.163897                                              
                                 8           190.630051       83.5255552       102.315026                                              
                                 9           190.932308       83.6766834       102.466154                                              
                                 10          191.234564       83.8278117       102.617282                                              
                                 11          191.536821       83.9789399       102.768410                                              
                                 12          191.839077       84.1300681       102.919538                                              
                                 13          192.141333       84.2811963       103.070667                                              
                                 14          192.443590       84.4323245       103.221795                                              
                                 15          192.745846       84.5834527       103.372923                                              
                                 16          193.048103       84.7345809       103.524051                                              
                                 17          193.350359       84.8857091       103.675179                                              
                                 18          193.652615       85.0368373       103.826308                                              
                                 19          193.954872       85.1879655       103.977436                                              
                                 20          194.257128       85.3390937       104.128564                                              
                                 21          194.559385       85.4902219       104.279692                                              
                                 22          194.861641       85.6413501       104.430821                                              
                                 23          195.163897       85.7924783       104.581949                                              
                                 24          195.466154       85.9436065       104.733077                                              
                                 25          195.768410       86.0947347       104.884205                                              
                                 26          196.070667       86.2458629       105.035333                                              
                                 27          196.372923       86.3969911       105.186462                                              
                                 28          196.675179       86.5481193       105.337590                                              
                                 29          196.977436       86.6992476       105.488718                                              
                                 30          197.279692       86.8503758       105.639846                                              
                                 31          197.581949       87.0015040       105.790974                                              
                                 32          197.884205       87.1526322       105.942103                                              
                                 33          198.186462       87.3037604       106.093231                                              
                                 34          198.488718       87.4548886       106.244359                                              
                                 35          198.790974       87.6060168       106.395487                                              
                                 36          199.093231       87.7571450       106.546615                                              
                                 37          199.395487       87.9082732       106.697744                                              
                                 38          199.697744       88.0594014       106.848872                                              
                                 39          200.000000       88.2105296       107.000000                                              
 352              (1,6,6)        1           188.514256       82.5056606       101.257128      01_06_06                                
                                 2           188.816513       82.6567888       101.408256                                              
                                 3           189.118769       82.8079170       101.559385                                              
                                 4           189.421026       82.9590452       101.710513                                              
                                 5           189.723282       83.1101734       101.861641                                              
                                 6           190.025538       83.2613016       102.012769                                              
                                 7           190.327795       83.4124299       102.163897                                              
                                 8           190.630051       83.5635581       102.315026                                              
                                 9           190.932308       83.7146863       102.466154                                              
                                 10          191.234564       83.8658145       102.617282                                              
                                 11          191.536821       84.0169427       102.768410                                              
                                 12          191.839077       84.1680709       102.919538                                              
                                 13          192.141333       84.3191991       103.070667                                              
                                 14          192.443590       84.4703273       103.221795                                              
                                 15          192.745846       84.6214555       103.372923                                              
                                 16          193.048103       84.7725837       103.524051                                              
                                 17          193.350359       84.9237119       103.675179                                              
                                 18          193.652615       85.0748401       103.826308                                              
                                 19          193.954872       85.2259683       103.977436                                              
                                 20          194.257128       85.3770965       104.128564                                              
                                 21          194.559385       85.5282247       104.279692                                              
                                 22          194.861641       85.6793529       104.430821                                              
                                 23          195.163897       85.8304811       104.581949                                              
                                 24          195.466154       85.9816093       104.733077                                              
                                 25          195.768410       86.1327375       104.884205                                              
                                 26          196.070667       86.2838657       105.035333                                              
                                 27          196.372923       86.4349940       105.186462                                              
                                 28          196.675179       86.5861222       105.337590                                              
                                 29          196.977436       86.7372504       105.488718                                              
                                 30          197.279692       86.8883786       105.639846                                              
                                 31          197.581949       87.0395068       105.790974                                              
                                 32          197.884205       87.1906350       105.942103                                              
                                 33          198.186462       87.3417632       106.093231                                              
                                 34          198.488718       87.4928914       106.244359                                              
                                 35          198.790974       87.6440196       106.395487                                              
                                 36          199.093231       87.7951478       106.546615                                              
                                 37          199.395487       87.9462760       106.697744                                              
                                 38          199.697744       88.0974042       106.848872                                              
                                 39          200.000000       88.2485324       107.000000                                              
 353              (1,6,7)        1           188.514256       82.5252639       101.257128      01_06_07                                
                                 2           188.816513       82.6763921       101.408256                                              
                                 3           189.118769       82.8275203       101.559385                                              
                                 4           189.421026       82.9786485       101.710513                                              
                                 5           189.723282       83.1297767       101.861641                                              
                                 6           190.025538       83.2809050       102.012769                                              
                                 7           190.327795       83.4320332       102.163897                                              
                                 8           190.630051       83.5831614       102.315026                                              
                                 9           190.932308       83.7342896       102.466154                                              
                                 10          191.234564       83.8854178       102.617282                                              
                                 11          191.536821       84.0365460       102.768410                                              
                                 12          191.839077       84.1876742       102.919538                                              
                                 13          192.141333       84.3388024       103.070667                                              
                                 14          192.443590       84.4899306       103.221795                                              
                                 15          192.745846       84.6410588       103.372923                                              
                                 16          193.048103       84.7921870       103.524051                                              
                                 17          193.350359       84.9433152       103.675179                                              
                                 18          193.652615       85.0944434       103.826308                                              
                                 19          193.954872       85.2455716       103.977436                                              
                                 20          194.257128       85.3966998       104.128564                                              
                                 21          194.559385       85.5478280       104.279692                                              
                                 22          194.861641       85.6989562       104.430821                                              
                                 23          195.163897       85.8500844       104.581949                                              
                                 24          195.466154       86.0012126       104.733077                                              
                                 25          195.768410       86.1523408       104.884205                                              
                                 26          196.070667       86.3034691       105.035333                                              
                                 27          196.372923       86.4545973       105.186462                                              
                                 28          196.675179       86.6057255       105.337590                                              
                                 29          196.977436       86.7568537       105.488718                                              
                                 30          197.279692       86.9079819       105.639846                                              
                                 31          197.581949       87.0591101       105.790974                                              
                                 32          197.884205       87.2102383       105.942103                                              
                                 33          198.186462       87.3613665       106.093231                                              
                                 34          198.488718       87.5124947       106.244359                                              
                                 35          198.790974       87.6636229       106.395487                                              
                                 36          199.093231       87.8147511       106.546615                                              
                                 37          199.395487       87.9658793       106.697744                                              
                                 38          199.697744       88.1170075       106.848872                                              
                                 39          200.000000       88.2681357       107.000000                                              
 354              (1,6,8)        1           188.514256       82.5297015       101.257128      01_06_08                                
                                 2           188.816513       82.6808297       101.408256                                              
                                 3           189.118769       82.8319579       101.559385                                              
                                 4           189.421026       82.9830861       101.710513                                              
                                 5           189.723282       83.1342143       101.861641                                              
                                 6           190.025538       83.2853425       102.012769                                              
                                 7           190.327795       83.4364707       102.163897                                              
                                 8           190.630051       83.5875989       102.315026                                              
                                 9           190.932308       83.7387271       102.466154                                              
                                 10          191.234564       83.8898553       102.617282                                              
                                 11          191.536821       84.0409835       102.768410                                              
                                 12          191.839077       84.1921117       102.919538                                              
                                 13          192.141333       84.3432399       103.070667                                              
                                 14          192.443590       84.4943681       103.221795                                              
                                 15          192.745846       84.6454963       103.372923                                              
                                 16          193.048103       84.7966246       103.524051                                              
                                 17          193.350359       84.9477528       103.675179                                              
                                 18          193.652615       85.0988810       103.826308                                              
                                 19          193.954872       85.2500092       103.977436                                              
                                 20          194.257128       85.4011374       104.128564                                              
                                 21          194.559385       85.5522656       104.279692                                              
                                 22          194.861641       85.7033938       104.430821                                              
                                 23          195.163897       85.8545220       104.581949                                              
                                 24          195.466154       86.0056502       104.733077                                              
                                 25          195.768410       86.1567784       104.884205                                              
                                 26          196.070667       86.3079066       105.035333                                              
                                 27          196.372923       86.4590348       105.186462                                              
                                 28          196.675179       86.6101630       105.337590                                              
                                 29          196.977436       86.7612912       105.488718                                              
                                 30          197.279692       86.9124194       105.639846                                              
                                 31          197.581949       87.0635476       105.790974                                              
                                 32          197.884205       87.2146758       105.942103                                              
                                 33          198.186462       87.3658040       106.093231                                              
                                 34          198.488718       87.5169322       106.244359                                              
                                 35          198.790974       87.6680605       106.395487                                              
                                 36          199.093231       87.8191887       106.546615                                              
                                 37          199.395487       87.9703169       106.697744                                              
                                 38          199.697744       88.1214451       106.848872                                              
                                 39          200.000000       88.2725733       107.000000                                              
 355              (1,6,9)        1           188.514256       82.5257283       101.257128      01_06_09                                
                                 2           188.816513       82.6768565       101.408256                                              
                                 3           189.118769       82.8279847       101.559385                                              
                                 4           189.421026       82.9791129       101.710513                                              
                                 5           189.723282       83.1302411       101.861641                                              
                                 6           190.025538       83.2813693       102.012769                                              
                                 7           190.327795       83.4324975       102.163897                                              
                                 8           190.630051       83.5836257       102.315026                                              
                                 9           190.932308       83.7347539       102.466154                                              
                                 10          191.234564       83.8858821       102.617282                                              
                                 11          191.536821       84.0370103       102.768410                                              
                                 12          191.839077       84.1881385       102.919538                                              
                                 13          192.141333       84.3392667       103.070667                                              
                                 14          192.443590       84.4903949       103.221795                                              
                                 15          192.745846       84.6415231       103.372923                                              
                                 16          193.048103       84.7926513       103.524051                                              
                                 17          193.350359       84.9437795       103.675179                                              
                                 18          193.652615       85.0949077       103.826308                                              
                                 19          193.954872       85.2460359       103.977436                                              
                                 20          194.257128       85.3971642       104.128564                                              
                                 21          194.559385       85.5482924       104.279692                                              
                                 22          194.861641       85.6994206       104.430821                                              
                                 23          195.163897       85.8505488       104.581949                                              
                                 24          195.466154       86.0016770       104.733077                                              
                                 25          195.768410       86.1528052       104.884205                                              
                                 26          196.070667       86.3039334       105.035333                                              
                                 27          196.372923       86.4550616       105.186462                                              
                                 28          196.675179       86.6061898       105.337590                                              
                                 29          196.977436       86.7573180       105.488718                                              
                                 30          197.279692       86.9084462       105.639846                                              
                                 31          197.581949       87.0595744       105.790974                                              
                                 32          197.884205       87.2107026       105.942103                                              
                                 33          198.186462       87.3618308       106.093231                                              
                                 34          198.488718       87.5129590       106.244359                                              
                                 35          198.790974       87.6640872       106.395487                                              
                                 36          199.093231       87.8152154       106.546615                                              
                                 37          199.395487       87.9663436       106.697744                                              
                                 38          199.697744       88.1174718       106.848872                                              
                                 39          200.000000       88.2686000       107.000000                                              
 356              (1,6,10)       1           188.514256       82.5209854       101.257128      01_06_10                                
                                 2           188.816513       82.6721136       101.408256                                              
                                 3           189.118769       82.8232418       101.559385                                              
                                 4           189.421026       82.9743700       101.710513                                              
                                 5           189.723282       83.1254983       101.861641                                              
                                 6           190.025538       83.2766265       102.012769                                              
                                 7           190.327795       83.4277547       102.163897                                              
                                 8           190.630051       83.5788829       102.315026                                              
                                 9           190.932308       83.7300111       102.466154                                              
                                 10          191.234564       83.8811393       102.617282                                              
                                 11          191.536821       84.0322675       102.768410                                              
                                 12          191.839077       84.1833957       102.919538                                              
                                 13          192.141333       84.3345239       103.070667                                              
                                 14          192.443590       84.4856521       103.221795                                              
                                 15          192.745846       84.6367803       103.372923                                              
                                 16          193.048103       84.7879085       103.524051                                              
                                 17          193.350359       84.9390367       103.675179                                              
                                 18          193.652615       85.0901649       103.826308                                              
                                 19          193.954872       85.2412931       103.977436                                              
                                 20          194.257128       85.3924213       104.128564                                              
                                 21          194.559385       85.5435495       104.279692                                              
                                 22          194.861641       85.6946777       104.430821                                              
                                 23          195.163897       85.8458059       104.581949                                              
                                 24          195.466154       85.9969341       104.733077                                              
                                 25          195.768410       86.1480624       104.884205                                              
                                 26          196.070667       86.2991906       105.035333                                              
                                 27          196.372923       86.4503188       105.186462                                              
                                 28          196.675179       86.6014470       105.337590                                              
                                 29          196.977436       86.7525752       105.488718                                              
                                 30          197.279692       86.9037034       105.639846                                              
                                 31          197.581949       87.0548316       105.790974                                              
                                 32          197.884205       87.2059598       105.942103                                              
                                 33          198.186462       87.3570880       106.093231                                              
                                 34          198.488718       87.5082162       106.244359                                              
                                 35          198.790974       87.6593444       106.395487                                              
                                 36          199.093231       87.8104726       106.546615                                              
                                 37          199.395487       87.9616008       106.697744                                              
                                 38          199.697744       88.1127290       106.848872                                              
                                 39          200.000000       88.2638572       107.000000                                              
 357              (1,7,1)        1           188.514256       84.8940947       101.257128      01_07_01                                
                                 2           188.816513       85.0452229       101.408256                                              
                                 3           189.118769       85.1963511       101.559385                                              
                                 4           189.421026       85.3474793       101.710513                                              
                                 5           189.723282       85.4986075       101.861641                                              
                                 6           190.025538       85.6497357       102.012769                                              
                                 7           190.327795       85.8008639       102.163897                                              
                                 8           190.630051       85.9519921       102.315026                                              
                                 9           190.932308       86.1031203       102.466154                                              
                                 10          191.234564       86.2542485       102.617282                                              
                                 11          191.536821       86.4053767       102.768410                                              
                                 12          191.839077       86.5565049       102.919538                                              
                                 13          192.141333       86.7076332       103.070667                                              
                                 14          192.443590       86.8587614       103.221795                                              
                                 15          192.745846       87.0098896       103.372923                                              
                                 16          193.048103       87.1610178       103.524051                                              
                                 17          193.350359       87.3121460       103.675179                                              
                                 18          193.652615       87.4632742       103.826308                                              
                                 19          193.954872       87.6144024       103.977436                                              
                                 20          194.257128       87.7655306       104.128564                                              
                                 21          194.559385       87.9166588       104.279692                                              
                                 22          194.861641       88.0677870       104.430821                                              
                                 23          195.163897       88.2189152       104.581949                                              
                                 24          195.466154       88.3700434       104.733077                                              
                                 25          195.768410       88.5211716       104.884205                                              
                                 26          196.070667       88.6722998       105.035333                                              
                                 27          196.372923       88.8234280       105.186462                                              
                                 28          196.675179       88.9745562       105.337590                                              
                                 29          196.977436       89.1256844       105.488718                                              
                                 30          197.279692       89.2768126       105.639846                                              
                                 31          197.581949       89.4279408       105.790974                                              
                                 32          197.884205       89.5790690       105.942103                                              
                                 33          198.186462       89.7301973       106.093231                                              
                                 34          198.488718       89.8813255       106.244359                                              
                                 35          198.790974       90.0324537       106.395487                                              
                                 36          199.093231       90.1835819       106.546615                                              
                                 37          199.395487       90.3347101       106.697744                                              
                                 38          199.697744       90.4858383       106.848872                                              
                                 39          200.000000       90.6369665       107.000000                                              
 358              (1,7,2)        1           188.514256       84.9250170       101.257128      01_07_02                                
                                 2           188.816513       85.0761452       101.408256                                              
                                 3           189.118769       85.2272734       101.559385                                              
                                 4           189.421026       85.3784016       101.710513                                              
                                 5           189.723282       85.5295298       101.861641                                              
                                 6           190.025538       85.6806580       102.012769                                              
                                 7           190.327795       85.8317862       102.163897                                              
                                 8           190.630051       85.9829144       102.315026                                              
                                 9           190.932308       86.1340426       102.466154                                              
                                 10          191.234564       86.2851709       102.617282                                              
                                 11          191.536821       86.4362991       102.768410                                              
                                 12          191.839077       86.5874273       102.919538                                              
                                 13          192.141333       86.7385555       103.070667                                              
                                 14          192.443590       86.8896837       103.221795                                              
                                 15          192.745846       87.0408119       103.372923                                              
                                 16          193.048103       87.1919401       103.524051                                              
                                 17          193.350359       87.3430683       103.675179                                              
                                 18          193.652615       87.4941965       103.826308                                              
                                 19          193.954872       87.6453247       103.977436                                              
                                 20          194.257128       87.7964529       104.128564                                              
                                 21          194.559385       87.9475811       104.279692                                              
                                 22          194.861641       88.0987093       104.430821                                              
                                 23          195.163897       88.2498375       104.581949                                              
                                 24          195.466154       88.4009657       104.733077                                              
                                 25          195.768410       88.5520939       104.884205                                              
                                 26          196.070667       88.7032221       105.035333                                              
                                 27          196.372923       88.8543503       105.186462                                              
                                 28          196.675179       89.0054785       105.337590                                              
                                 29          196.977436       89.1566068       105.488718                                              
                                 30          197.279692       89.3077350       105.639846                                              
                                 31          197.581949       89.4588632       105.790974                                              
                                 32          197.884205       89.6099914       105.942103                                              
                                 33          198.186462       89.7611196       106.093231                                              
                                 34          198.488718       89.9122478       106.244359                                              
                                 35          198.790974       90.0633760       106.395487                                              
                                 36          199.093231       90.2145042       106.546615                                              
                                 37          199.395487       90.3656324       106.697744                                              
                                 38          199.697744       90.5167606       106.848872                                              
                                 39          200.000000       90.6678888       107.000000                                              
 359              (1,7,3)        1           188.514256       84.9758107       101.257128      01_07_03                                
                                 2           188.816513       85.1269389       101.408256                                              
                                 3           189.118769       85.2780671       101.559385                                              
                                 4           189.421026       85.4291953       101.710513                                              
                                 5           189.723282       85.5803235       101.861641                                              
                                 6           190.025538       85.7314517       102.012769                                              
                                 7           190.327795       85.8825800       102.163897                                              
                                 8           190.630051       86.0337082       102.315026                                              
                                 9           190.932308       86.1848364       102.466154                                              
                                 10          191.234564       86.3359646       102.617282                                              
                                 11          191.536821       86.4870928       102.768410                                              
                                 12          191.839077       86.6382210       102.919538                                              
                                 13          192.141333       86.7893492       103.070667                                              
                                 14          192.443590       86.9404774       103.221795                                              
                                 15          192.745846       87.0916056       103.372923                                              
                                 16          193.048103       87.2427338       103.524051                                              
                                 17          193.350359       87.3938620       103.675179                                              
                                 18          193.652615       87.5449902       103.826308                                              
                                 19          193.954872       87.6961184       103.977436                                              
                                 20          194.257128       87.8472466       104.128564                                              
                                 21          194.559385       87.9983748       104.279692                                              
                                 22          194.861641       88.1495030       104.430821                                              
                                 23          195.163897       88.3006312       104.581949                                              
                                 24          195.466154       88.4517594       104.733077                                              
                                 25          195.768410       88.6028876       104.884205                                              
                                 26          196.070667       88.7540158       105.035333                                              
                                 27          196.372923       88.9051441       105.186462                                              
                                 28          196.675179       89.0562723       105.337590                                              
                                 29          196.977436       89.2074005       105.488718                                              
                                 30          197.279692       89.3585287       105.639846                                              
                                 31          197.581949       89.5096569       105.790974                                              
                                 32          197.884205       89.6607851       105.942103                                              
                                 33          198.186462       89.8119133       106.093231                                              
                                 34          198.488718       89.9630415       106.244359                                              
                                 35          198.790974       90.1141697       106.395487                                              
                                 36          199.093231       90.2652979       106.546615                                              
                                 37          199.395487       90.4164261       106.697744                                              
                                 38          199.697744       90.5675543       106.848872                                              
                                 39          200.000000       90.7186825       107.000000                                              
 360              (1,7,4)        1           188.514256       85.0305167       101.257128      01_07_04                                
                                 2           188.816513       85.1816449       101.408256                                              
                                 3           189.118769       85.3327732       101.559385                                              
                                 4           189.421026       85.4839014       101.710513                                              
                                 5           189.723282       85.6350296       101.861641                                              
                                 6           190.025538       85.7861578       102.012769                                              
                                 7           190.327795       85.9372860       102.163897                                              
                                 8           190.630051       86.0884142       102.315026                                              
                                 9           190.932308       86.2395424       102.466154                                              
                                 10          191.234564       86.3906706       102.617282                                              
                                 11          191.536821       86.5417988       102.768410                                              
                                 12          191.839077       86.6929270       102.919538                                              
                                 13          192.141333       86.8440552       103.070667                                              
                                 14          192.443590       86.9951834       103.221795                                              
                                 15          192.745846       87.1463116       103.372923                                              
                                 16          193.048103       87.2974398       103.524051                                              
                                 17          193.350359       87.4485680       103.675179                                              
                                 18          193.652615       87.5996962       103.826308                                              
                                 19          193.954872       87.7508244       103.977436                                              
                                 20          194.257128       87.9019526       104.128564                                              
                                 21          194.559385       88.0530808       104.279692                                              
                                 22          194.861641       88.2042090       104.430821                                              
                                 23          195.163897       88.3553373       104.581949                                              
                                 24          195.466154       88.5064655       104.733077                                              
                                 25          195.768410       88.6575937       104.884205                                              
                                 26          196.070667       88.8087219       105.035333                                              
                                 27          196.372923       88.9598501       105.186462                                              
                                 28          196.675179       89.1109783       105.337590                                              
                                 29          196.977436       89.2621065       105.488718                                              
                                 30          197.279692       89.4132347       105.639846                                              
                                 31          197.581949       89.5643629       105.790974                                              
                                 32          197.884205       89.7154911       105.942103                                              
                                 33          198.186462       89.8666193       106.093231                                              
                                 34          198.488718       90.0177475       106.244359                                              
                                 35          198.790974       90.1688757       106.395487                                              
                                 36          199.093231       90.3200039       106.546615                                              
                                 37          199.395487       90.4711321       106.697744                                              
                                 38          199.697744       90.6222603       106.848872                                              
                                 39          200.000000       90.7733885       107.000000                                              
 361              (1,7,5)        1           188.514256       85.0732074       101.257128      01_07_05                                
                                 2           188.816513       85.2243356       101.408256                                              
                                 3           189.118769       85.3754638       101.559385                                              
                                 4           189.421026       85.5265920       101.710513                                              
                                 5           189.723282       85.6777202       101.861641                                              
                                 6           190.025538       85.8288484       102.012769                                              
                                 7           190.327795       85.9799766       102.163897                                              
                                 8           190.630051       86.1311048       102.315026                                              
                                 9           190.932308       86.2822330       102.466154                                              
                                 10          191.234564       86.4333613       102.617282                                              
                                 11          191.536821       86.5844895       102.768410                                              
                                 12          191.839077       86.7356177       102.919538                                              
                                 13          192.141333       86.8867459       103.070667                                              
                                 14          192.443590       87.0378741       103.221795                                              
                                 15          192.745846       87.1890023       103.372923                                              
                                 16          193.048103       87.3401305       103.524051                                              
                                 17          193.350359       87.4912587       103.675179                                              
                                 18          193.652615       87.6423869       103.826308                                              
                                 19          193.954872       87.7935151       103.977436                                              
                                 20          194.257128       87.9446433       104.128564                                              
                                 21          194.559385       88.0957715       104.279692                                              
                                 22          194.861641       88.2468997       104.430821                                              
                                 23          195.163897       88.3980279       104.581949                                              
                                 24          195.466154       88.5491561       104.733077                                              
                                 25          195.768410       88.7002843       104.884205                                              
                                 26          196.070667       88.8514125       105.035333                                              
                                 27          196.372923       89.0025407       105.186462                                              
                                 28          196.675179       89.1536689       105.337590                                              
                                 29          196.977436       89.3047972       105.488718                                              
                                 30          197.279692       89.4559254       105.639846                                              
                                 31          197.581949       89.6070536       105.790974                                              
                                 32          197.884205       89.7581818       105.942103                                              
                                 33          198.186462       89.9093100       106.093231                                              
                                 34          198.488718       90.0604382       106.244359                                              
                                 35          198.790974       90.2115664       106.395487                                              
                                 36          199.093231       90.3626946       106.546615                                              
                                 37          199.395487       90.5138228       106.697744                                              
                                 38          199.697744       90.6649510       106.848872                                              
                                 39          200.000000       90.8160792       107.000000                                              
 362              (1,7,6)        1           188.514256       85.0947052       101.257128      01_07_06                                
                                 2           188.816513       85.2458334       101.408256                                              
                                 3           189.118769       85.3969617       101.559385                                              
                                 4           189.421026       85.5480899       101.710513                                              
                                 5           189.723282       85.6992181       101.861641                                              
                                 6           190.025538       85.8503463       102.012769                                              
                                 7           190.327795       86.0014745       102.163897                                              
                                 8           190.630051       86.1526027       102.315026                                              
                                 9           190.932308       86.3037309       102.466154                                              
                                 10          191.234564       86.4548591       102.617282                                              
                                 11          191.536821       86.6059873       102.768410                                              
                                 12          191.839077       86.7571155       102.919538                                              
                                 13          192.141333       86.9082437       103.070667                                              
                                 14          192.443590       87.0593719       103.221795                                              
                                 15          192.745846       87.2105001       103.372923                                              
                                 16          193.048103       87.3616283       103.524051                                              
                                 17          193.350359       87.5127565       103.675179                                              
                                 18          193.652615       87.6638847       103.826308                                              
                                 19          193.954872       87.8150129       103.977436                                              
                                 20          194.257128       87.9661411       104.128564                                              
                                 21          194.559385       88.1172693       104.279692                                              
                                 22          194.861641       88.2683976       104.430821                                              
                                 23          195.163897       88.4195258       104.581949                                              
                                 24          195.466154       88.5706540       104.733077                                              
                                 25          195.768410       88.7217822       104.884205                                              
                                 26          196.070667       88.8729104       105.035333                                              
                                 27          196.372923       89.0240386       105.186462                                              
                                 28          196.675179       89.1751668       105.337590                                              
                                 29          196.977436       89.3262950       105.488718                                              
                                 30          197.279692       89.4774232       105.639846                                              
                                 31          197.581949       89.6285514       105.790974                                              
                                 32          197.884205       89.7796796       105.942103                                              
                                 33          198.186462       89.9308078       106.093231                                              
                                 34          198.488718       90.0819360       106.244359                                              
                                 35          198.790974       90.2330642       106.395487                                              
                                 36          199.093231       90.3841924       106.546615                                              
                                 37          199.395487       90.5353206       106.697744                                              
                                 38          199.697744       90.6864488       106.848872                                              
                                 39          200.000000       90.8375770       107.000000                                              
 363              (1,7,7)        1           188.514256       85.0933658       101.257128      01_07_07                                
                                 2           188.816513       85.2444940       101.408256                                              
                                 3           189.118769       85.3956222       101.559385                                              
                                 4           189.421026       85.5467505       101.710513                                              
                                 5           189.723282       85.6978787       101.861641                                              
                                 6           190.025538       85.8490069       102.012769                                              
                                 7           190.327795       86.0001351       102.163897                                              
                                 8           190.630051       86.1512633       102.315026                                              
                                 9           190.932308       86.3023915       102.466154                                              
                                 10          191.234564       86.4535197       102.617282                                              
                                 11          191.536821       86.6046479       102.768410                                              
                                 12          191.839077       86.7557761       102.919538                                              
                                 13          192.141333       86.9069043       103.070667                                              
                                 14          192.443590       87.0580325       103.221795                                              
                                 15          192.745846       87.2091607       103.372923                                              
                                 16          193.048103       87.3602889       103.524051                                              
                                 17          193.350359       87.5114171       103.675179                                              
                                 18          193.652615       87.6625453       103.826308                                              
                                 19          193.954872       87.8136735       103.977436                                              
                                 20          194.257128       87.9648017       104.128564                                              
                                 21          194.559385       88.1159299       104.279692                                              
                                 22          194.861641       88.2670581       104.430821                                              
                                 23          195.163897       88.4181864       104.581949                                              
                                 24          195.466154       88.5693146       104.733077                                              
                                 25          195.768410       88.7204428       104.884205                                              
                                 26          196.070667       88.8715710       105.035333                                              
                                 27          196.372923       89.0226992       105.186462                                              
                                 28          196.675179       89.1738274       105.337590                                              
                                 29          196.977436       89.3249556       105.488718                                              
                                 30          197.279692       89.4760838       105.639846                                              
                                 31          197.581949       89.6272120       105.790974                                              
                                 32          197.884205       89.7783402       105.942103                                              
                                 33          198.186462       89.9294684       106.093231                                              
                                 34          198.488718       90.0805966       106.244359                                              
                                 35          198.790974       90.2317248       106.395487                                              
                                 36          199.093231       90.3828530       106.546615                                              
                                 37          199.395487       90.5339812       106.697744                                              
                                 38          199.697744       90.6851094       106.848872                                              
                                 39          200.000000       90.8362376       107.000000                                              
 364              (1,7,8)        1           188.514256       85.0749438       101.257128      01_07_08                                
                                 2           188.816513       85.2260720       101.408256                                              
                                 3           189.118769       85.3772002       101.559385                                              
                                 4           189.421026       85.5283284       101.710513                                              
                                 5           189.723282       85.6794566       101.861641                                              
                                 6           190.025538       85.8305848       102.012769                                              
                                 7           190.327795       85.9817131       102.163897                                              
                                 8           190.630051       86.1328413       102.315026                                              
                                 9           190.932308       86.2839695       102.466154                                              
                                 10          191.234564       86.4350977       102.617282                                              
                                 11          191.536821       86.5862259       102.768410                                              
                                 12          191.839077       86.7373541       102.919538                                              
                                 13          192.141333       86.8884823       103.070667                                              
                                 14          192.443590       87.0396105       103.221795                                              
                                 15          192.745846       87.1907387       103.372923                                              
                                 16          193.048103       87.3418669       103.524051                                              
                                 17          193.350359       87.4929951       103.675179                                              
                                 18          193.652615       87.6441233       103.826308                                              
                                 19          193.954872       87.7952515       103.977436                                              
                                 20          194.257128       87.9463797       104.128564                                              
                                 21          194.559385       88.0975079       104.279692                                              
                                 22          194.861641       88.2486361       104.430821                                              
                                 23          195.163897       88.3997643       104.581949                                              
                                 24          195.466154       88.5508925       104.733077                                              
                                 25          195.768410       88.7020207       104.884205                                              
                                 26          196.070667       88.8531489       105.035333                                              
                                 27          196.372923       89.0042772       105.186462                                              
                                 28          196.675179       89.1554054       105.337590                                              
                                 29          196.977436       89.3065336       105.488718                                              
                                 30          197.279692       89.4576618       105.639846                                              
                                 31          197.581949       89.6087900       105.790974                                              
                                 32          197.884205       89.7599182       105.942103                                              
                                 33          198.186462       89.9110464       106.093231                                              
                                 34          198.488718       90.0621746       106.244359                                              
                                 35          198.790974       90.2133028       106.395487                                              
                                 36          199.093231       90.3644310       106.546615                                              
                                 37          199.395487       90.5155592       106.697744                                              
                                 38          199.697744       90.6666874       106.848872                                              
                                 39          200.000000       90.8178156       107.000000                                              
 365              (1,7,9)        1           188.514256       85.0516675       101.257128      01_07_09                                
                                 2           188.816513       85.2027957       101.408256                                              
                                 3           189.118769       85.3539239       101.559385                                              
                                 4           189.421026       85.5050521       101.710513                                              
                                 5           189.723282       85.6561803       101.861641                                              
                                 6           190.025538       85.8073085       102.012769                                              
                                 7           190.327795       85.9584367       102.163897                                              
                                 8           190.630051       86.1095650       102.315026                                              
                                 9           190.932308       86.2606932       102.466154                                              
                                 10          191.234564       86.4118214       102.617282                                              
                                 11          191.536821       86.5629496       102.768410                                              
                                 12          191.839077       86.7140778       102.919538                                              
                                 13          192.141333       86.8652060       103.070667                                              
                                 14          192.443590       87.0163342       103.221795                                              
                                 15          192.745846       87.1674624       103.372923                                              
                                 16          193.048103       87.3185906       103.524051                                              
                                 17          193.350359       87.4697188       103.675179                                              
                                 18          193.652615       87.6208470       103.826308                                              
                                 19          193.954872       87.7719752       103.977436                                              
                                 20          194.257128       87.9231034       104.128564                                              
                                 21          194.559385       88.0742316       104.279692                                              
                                 22          194.861641       88.2253598       104.430821                                              
                                 23          195.163897       88.3764880       104.581949                                              
                                 24          195.466154       88.5276162       104.733077                                              
                                 25          195.768410       88.6787444       104.884205                                              
                                 26          196.070667       88.8298726       105.035333                                              
                                 27          196.372923       88.9810009       105.186462                                              
                                 28          196.675179       89.1321291       105.337590                                              
                                 29          196.977436       89.2832573       105.488718                                              
                                 30          197.279692       89.4343855       105.639846                                              
                                 31          197.581949       89.5855137       105.790974                                              
                                 32          197.884205       89.7366419       105.942103                                              
                                 33          198.186462       89.8877701       106.093231                                              
                                 34          198.488718       90.0388983       106.244359                                              
                                 35          198.790974       90.1900265       106.395487                                              
                                 36          199.093231       90.3411547       106.546615                                              
                                 37          199.395487       90.4922829       106.697744                                              
                                 38          199.697744       90.6434111       106.848872                                              
                                 39          200.000000       90.7945393       107.000000                                              
 366              (1,7,10)       1           188.514256       85.0358196       101.257128      01_07_10                                
                                 2           188.816513       85.1869478       101.408256                                              
                                 3           189.118769       85.3380760       101.559385                                              
                                 4           189.421026       85.4892042       101.710513                                              
                                 5           189.723282       85.6403324       101.861641                                              
                                 6           190.025538       85.7914606       102.012769                                              
                                 7           190.327795       85.9425888       102.163897                                              
                                 8           190.630051       86.0937170       102.315026                                              
                                 9           190.932308       86.2448452       102.466154                                              
                                 10          191.234564       86.3959734       102.617282                                              
                                 11          191.536821       86.5471016       102.768410                                              
                                 12          191.839077       86.6982298       102.919538                                              
                                 13          192.141333       86.8493580       103.070667                                              
                                 14          192.443590       87.0004862       103.221795                                              
                                 15          192.745846       87.1516144       103.372923                                              
                                 16          193.048103       87.3027426       103.524051                                              
                                 17          193.350359       87.4538708       103.675179                                              
                                 18          193.652615       87.6049990       103.826308                                              
                                 19          193.954872       87.7561272       103.977436                                              
                                 20          194.257128       87.9072555       104.128564                                              
                                 21          194.559385       88.0583837       104.279692                                              
                                 22          194.861641       88.2095119       104.430821                                              
                                 23          195.163897       88.3606401       104.581949                                              
                                 24          195.466154       88.5117683       104.733077                                              
                                 25          195.768410       88.6628965       104.884205                                              
                                 26          196.070667       88.8140247       105.035333                                              
                                 27          196.372923       88.9651529       105.186462                                              
                                 28          196.675179       89.1162811       105.337590                                              
                                 29          196.977436       89.2674093       105.488718                                              
                                 30          197.279692       89.4185375       105.639846                                              
                                 31          197.581949       89.5696657       105.790974                                              
                                 32          197.884205       89.7207939       105.942103                                              
                                 33          198.186462       89.8719221       106.093231                                              
                                 34          198.488718       90.0230503       106.244359                                              
                                 35          198.790974       90.1741785       106.395487                                              
                                 36          199.093231       90.3253067       106.546615                                              
                                 37          199.395487       90.4764349       106.697744                                              
                                 38          199.697744       90.6275631       106.848872                                              
                                 39          200.000000       90.7786914       107.000000                                              
 367              (1,8,1)        1           188.514256       87.4271816       101.257128      01_08_01                                
                                 2           188.816513       87.5783098       101.408256                                              
                                 3           189.118769       87.7294380       101.559385                                              
                                 4           189.421026       87.8805662       101.710513                                              
                                 5           189.723282       88.0316944       101.861641                                              
                                 6           190.025538       88.1828226       102.012769                                              
                                 7           190.327795       88.3339508       102.163897                                              
                                 8           190.630051       88.4850790       102.315026                                              
                                 9           190.932308       88.6362073       102.466154                                              
                                 10          191.234564       88.7873355       102.617282                                              
                                 11          191.536821       88.9384637       102.768410                                              
                                 12          191.839077       89.0895919       102.919538                                              
                                 13          192.141333       89.2407201       103.070667                                              
                                 14          192.443590       89.3918483       103.221795                                              
                                 15          192.745846       89.5429765       103.372923                                              
                                 16          193.048103       89.6941047       103.524051                                              
                                 17          193.350359       89.8452329       103.675179                                              
                                 18          193.652615       89.9963611       103.826308                                              
                                 19          193.954872       90.1474893       103.977436                                              
                                 20          194.257128       90.2986175       104.128564                                              
                                 21          194.559385       90.4497457       104.279692                                              
                                 22          194.861641       90.6008739       104.430821                                              
                                 23          195.163897       90.7520021       104.581949                                              
                                 24          195.466154       90.9031303       104.733077                                              
                                 25          195.768410       91.0542585       104.884205                                              
                                 26          196.070667       91.2053867       105.035333                                              
                                 27          196.372923       91.3565149       105.186462                                              
                                 28          196.675179       91.5076432       105.337590                                              
                                 29          196.977436       91.6587714       105.488718                                              
                                 30          197.279692       91.8098996       105.639846                                              
                                 31          197.581949       91.9610278       105.790974                                              
                                 32          197.884205       92.1121560       105.942103                                              
                                 33          198.186462       92.2632842       106.093231                                              
                                 34          198.488718       92.4144124       106.244359                                              
                                 35          198.790974       92.5655406       106.395487                                              
                                 36          199.093231       92.7166688       106.546615                                              
                                 37          199.395487       92.8677970       106.697744                                              
                                 38          199.697744       93.0189252       106.848872                                              
                                 39          200.000000       93.1700534       107.000000                                              
 368              (1,8,2)        1           188.514256       87.4907617       101.257128      01_08_02                                
                                 2           188.816513       87.6418899       101.408256                                              
                                 3           189.118769       87.7930181       101.559385                                              
                                 4           189.421026       87.9441463       101.710513                                              
                                 5           189.723282       88.0952745       101.861641                                              
                                 6           190.025538       88.2464027       102.012769                                              
                                 7           190.327795       88.3975309       102.163897                                              
                                 8           190.630051       88.5486591       102.315026                                              
                                 9           190.932308       88.6997873       102.466154                                              
                                 10          191.234564       88.8509155       102.617282                                              
                                 11          191.536821       89.0020437       102.768410                                              
                                 12          191.839077       89.1531720       102.919538                                              
                                 13          192.141333       89.3043002       103.070667                                              
                                 14          192.443590       89.4554284       103.221795                                              
                                 15          192.745846       89.6065566       103.372923                                              
                                 16          193.048103       89.7576848       103.524051                                              
                                 17          193.350359       89.9088130       103.675179                                              
                                 18          193.652615       90.0599412       103.826308                                              
                                 19          193.954872       90.2110694       103.977436                                              
                                 20          194.257128       90.3621976       104.128564                                              
                                 21          194.559385       90.5133258       104.279692                                              
                                 22          194.861641       90.6644540       104.430821                                              
                                 23          195.163897       90.8155822       104.581949                                              
                                 24          195.466154       90.9667104       104.733077                                              
                                 25          195.768410       91.1178386       104.884205                                              
                                 26          196.070667       91.2689668       105.035333                                              
                                 27          196.372923       91.4200950       105.186462                                              
                                 28          196.675179       91.5712232       105.337590                                              
                                 29          196.977436       91.7223514       105.488718                                              
                                 30          197.279692       91.8734796       105.639846                                              
                                 31          197.581949       92.0246079       105.790974                                              
                                 32          197.884205       92.1757361       105.942103                                              
                                 33          198.186462       92.3268643       106.093231                                              
                                 34          198.488718       92.4779925       106.244359                                              
                                 35          198.790974       92.6291207       106.395487                                              
                                 36          199.093231       92.7802489       106.546615                                              
                                 37          199.395487       92.9313771       106.697744                                              
                                 38          199.697744       93.0825053       106.848872                                              
                                 39          200.000000       93.2336335       107.000000                                              
 369              (1,8,3)        1           188.514256       87.5963050       101.257128      01_08_03                                
                                 2           188.816513       87.7474333       101.408256                                              
                                 3           189.118769       87.8985615       101.559385                                              
                                 4           189.421026       88.0496897       101.710513                                              
                                 5           189.723282       88.2008179       101.861641                                              
                                 6           190.025538       88.3519461       102.012769                                              
                                 7           190.327795       88.5030743       102.163897                                              
                                 8           190.630051       88.6542025       102.315026                                              
                                 9           190.932308       88.8053307       102.466154                                              
                                 10          191.234564       88.9564589       102.617282                                              
                                 11          191.536821       89.1075871       102.768410                                              
                                 12          191.839077       89.2587153       102.919538                                              
                                 13          192.141333       89.4098435       103.070667                                              
                                 14          192.443590       89.5609717       103.221795                                              
                                 15          192.745846       89.7120999       103.372923                                              
                                 16          193.048103       89.8632281       103.524051                                              
                                 17          193.350359       90.0143563       103.675179                                              
                                 18          193.652615       90.1654845       103.826308                                              
                                 19          193.954872       90.3166127       103.977436                                              
                                 20          194.257128       90.4677409       104.128564                                              
                                 21          194.559385       90.6188692       104.279692                                              
                                 22          194.861641       90.7699974       104.430821                                              
                                 23          195.163897       90.9211256       104.581949                                              
                                 24          195.466154       91.0722538       104.733077                                              
                                 25          195.768410       91.2233820       104.884205                                              
                                 26          196.070667       91.3745102       105.035333                                              
                                 27          196.372923       91.5256384       105.186462                                              
                                 28          196.675179       91.6767666       105.337590                                              
                                 29          196.977436       91.8278948       105.488718                                              
                                 30          197.279692       91.9790230       105.639846                                              
                                 31          197.581949       92.1301512       105.790974                                              
                                 32          197.884205       92.2812794       105.942103                                              
                                 33          198.186462       92.4324076       106.093231                                              
                                 34          198.488718       92.5835358       106.244359                                              
                                 35          198.790974       92.7346640       106.395487                                              
                                 36          199.093231       92.8857922       106.546615                                              
                                 37          199.395487       93.0369204       106.697744                                              
                                 38          199.697744       93.1880486       106.848872                                              
                                 39          200.000000       93.3391768       107.000000                                              
 370              (1,8,4)        1           188.514256       87.7059358       101.257128      01_08_04                                
                                 2           188.816513       87.8570640       101.408256                                              
                                 3           189.118769       88.0081922       101.559385                                              
                                 4           189.421026       88.1593204       101.710513                                              
                                 5           189.723282       88.3104486       101.861641                                              
                                 6           190.025538       88.4615768       102.012769                                              
                                 7           190.327795       88.6127050       102.163897                                              
                                 8           190.630051       88.7638332       102.315026                                              
                                 9           190.932308       88.9149614       102.466154                                              
                                 10          191.234564       89.0660896       102.617282                                              
                                 11          191.536821       89.2172178       102.768410                                              
                                 12          191.839077       89.3683461       102.919538                                              
                                 13          192.141333       89.5194743       103.070667                                              
                                 14          192.443590       89.6706025       103.221795                                              
                                 15          192.745846       89.8217307       103.372923                                              
                                 16          193.048103       89.9728589       103.524051                                              
                                 17          193.350359       90.1239871       103.675179                                              
                                 18          193.652615       90.2751153       103.826308                                              
                                 19          193.954872       90.4262435       103.977436                                              
                                 20          194.257128       90.5773717       104.128564                                              
                                 21          194.559385       90.7284999       104.279692                                              
                                 22          194.861641       90.8796281       104.430821                                              
                                 23          195.163897       91.0307563       104.581949                                              
                                 24          195.466154       91.1818845       104.733077                                              
                                 25          195.768410       91.3330127       104.884205                                              
                                 26          196.070667       91.4841409       105.035333                                              
                                 27          196.372923       91.6352691       105.186462                                              
                                 28          196.675179       91.7863973       105.337590                                              
                                 29          196.977436       91.9375255       105.488718                                              
                                 30          197.279692       92.0886537       105.639846                                              
                                 31          197.581949       92.2397820       105.790974                                              
                                 32          197.884205       92.3909102       105.942103                                              
                                 33          198.186462       92.5420384       106.093231                                              
                                 34          198.488718       92.6931666       106.244359                                              
                                 35          198.790974       92.8442948       106.395487                                              
                                 36          199.093231       92.9954230       106.546615                                              
                                 37          199.395487       93.1465512       106.697744                                              
                                 38          199.697744       93.2976794       106.848872                                              
                                 39          200.000000       93.4488076       107.000000                                              
 371              (1,8,5)        1           188.514256       87.7735547       101.257128      01_08_05                                
                                 2           188.816513       87.9246829       101.408256                                              
                                 3           189.118769       88.0758111       101.559385                                              
                                 4           189.421026       88.2269393       101.710513                                              
                                 5           189.723282       88.3780675       101.861641                                              
                                 6           190.025538       88.5291957       102.012769                                              
                                 7           190.327795       88.6803239       102.163897                                              
                                 8           190.630051       88.8314521       102.315026                                              
                                 9           190.932308       88.9825803       102.466154                                              
                                 10          191.234564       89.1337085       102.617282                                              
                                 11          191.536821       89.2848367       102.768410                                              
                                 12          191.839077       89.4359649       102.919538                                              
                                 13          192.141333       89.5870931       103.070667                                              
                                 14          192.443590       89.7382213       103.221795                                              
                                 15          192.745846       89.8893495       103.372923                                              
                                 16          193.048103       90.0404777       103.524051                                              
                                 17          193.350359       90.1916059       103.675179                                              
                                 18          193.652615       90.3427341       103.826308                                              
                                 19          193.954872       90.4938623       103.977436                                              
                                 20          194.257128       90.6449905       104.128564                                              
                                 21          194.559385       90.7961188       104.279692                                              
                                 22          194.861641       90.9472470       104.430821                                              
                                 23          195.163897       91.0983752       104.581949                                              
                                 24          195.466154       91.2495034       104.733077                                              
                                 25          195.768410       91.4006316       104.884205                                              
                                 26          196.070667       91.5517598       105.035333                                              
                                 27          196.372923       91.7028880       105.186462                                              
                                 28          196.675179       91.8540162       105.337590                                              
                                 29          196.977436       92.0051444       105.488718                                              
                                 30          197.279692       92.1562726       105.639846                                              
                                 31          197.581949       92.3074008       105.790974                                              
                                 32          197.884205       92.4585290       105.942103                                              
                                 33          198.186462       92.6096572       106.093231                                              
                                 34          198.488718       92.7607854       106.244359                                              
                                 35          198.790974       92.9119136       106.395487                                              
                                 36          199.093231       93.0630418       106.546615                                              
                                 37          199.395487       93.2141700       106.697744                                              
                                 38          199.697744       93.3652982       106.848872                                              
                                 39          200.000000       93.5164264       107.000000                                              
 372              (1,8,6)        1           188.514256       87.7851885       101.257128      01_08_06                                
                                 2           188.816513       87.9363168       101.408256                                              
                                 3           189.118769       88.0874450       101.559385                                              
                                 4           189.421026       88.2385732       101.710513                                              
                                 5           189.723282       88.3897014       101.861641                                              
                                 6           190.025538       88.5408296       102.012769                                              
                                 7           190.327795       88.6919578       102.163897                                              
                                 8           190.630051       88.8430860       102.315026                                              
                                 9           190.932308       88.9942142       102.466154                                              
                                 10          191.234564       89.1453424       102.617282                                              
                                 11          191.536821       89.2964706       102.768410                                              
                                 12          191.839077       89.4475988       102.919538                                              
                                 13          192.141333       89.5987270       103.070667                                              
                                 14          192.443590       89.7498552       103.221795                                              
                                 15          192.745846       89.9009834       103.372923                                              
                                 16          193.048103       90.0521116       103.524051                                              
                                 17          193.350359       90.2032398       103.675179                                              
                                 18          193.652615       90.3543680       103.826308                                              
                                 19          193.954872       90.5054962       103.977436                                              
                                 20          194.257128       90.6566244       104.128564                                              
                                 21          194.559385       90.8077526       104.279692                                              
                                 22          194.861641       90.9588809       104.430821                                              
                                 23          195.163897       91.1100091       104.581949                                              
                                 24          195.466154       91.2611373       104.733077                                              
                                 25          195.768410       91.4122655       104.884205                                              
                                 26          196.070667       91.5633937       105.035333                                              
                                 27          196.372923       91.7145219       105.186462                                              
                                 28          196.675179       91.8656501       105.337590                                              
                                 29          196.977436       92.0167783       105.488718                                              
                                 30          197.279692       92.1679065       105.639846                                              
                                 31          197.581949       92.3190347       105.790974                                              
                                 32          197.884205       92.4701629       105.942103                                              
                                 33          198.186462       92.6212911       106.093231                                              
                                 34          198.488718       92.7724193       106.244359                                              
                                 35          198.790974       92.9235475       106.395487                                              
                                 36          199.093231       93.0746757       106.546615                                              
                                 37          199.395487       93.2258039       106.697744                                              
                                 38          199.697744       93.3769321       106.848872                                              
                                 39          200.000000       93.5280603       107.000000                                              
 373              (1,8,7)        1           188.514256       87.7398885       101.257128      01_08_07                                
                                 2           188.816513       87.8910167       101.408256                                              
                                 3           189.118769       88.0421449       101.559385                                              
                                 4           189.421026       88.1932731       101.710513                                              
                                 5           189.723282       88.3444013       101.861641                                              
                                 6           190.025538       88.4955295       102.012769                                              
                                 7           190.327795       88.6466577       102.163897                                              
                                 8           190.630051       88.7977859       102.315026                                              
                                 9           190.932308       88.9489141       102.466154                                              
                                 10          191.234564       89.1000423       102.617282                                              
                                 11          191.536821       89.2511705       102.768410                                              
                                 12          191.839077       89.4022988       102.919538                                              
                                 13          192.141333       89.5534270       103.070667                                              
                                 14          192.443590       89.7045552       103.221795                                              
                                 15          192.745846       89.8556834       103.372923                                              
                                 16          193.048103       90.0068116       103.524051                                              
                                 17          193.350359       90.1579398       103.675179                                              
                                 18          193.652615       90.3090680       103.826308                                              
                                 19          193.954872       90.4601962       103.977436                                              
                                 20          194.257128       90.6113244       104.128564                                              
                                 21          194.559385       90.7624526       104.279692                                              
                                 22          194.861641       90.9135808       104.430821                                              
                                 23          195.163897       91.0647090       104.581949                                              
                                 24          195.466154       91.2158372       104.733077                                              
                                 25          195.768410       91.3669654       104.884205                                              
                                 26          196.070667       91.5180936       105.035333                                              
                                 27          196.372923       91.6692218       105.186462                                              
                                 28          196.675179       91.8203500       105.337590                                              
                                 29          196.977436       91.9714782       105.488718                                              
                                 30          197.279692       92.1226064       105.639846                                              
                                 31          197.581949       92.2737347       105.790974                                              
                                 32          197.884205       92.4248629       105.942103                                              
                                 33          198.186462       92.5759911       106.093231                                              
                                 34          198.488718       92.7271193       106.244359                                              
                                 35          198.790974       92.8782475       106.395487                                              
                                 36          199.093231       93.0293757       106.546615                                              
                                 37          199.395487       93.1805039       106.697744                                              
                                 38          199.697744       93.3316321       106.848872                                              
                                 39          200.000000       93.4827603       107.000000                                              
 374              (1,8,8)        1           188.514256       87.6496916       101.257128      01_08_08                                
                                 2           188.816513       87.8008198       101.408256                                              
                                 3           189.118769       87.9519480       101.559385                                              
                                 4           189.421026       88.1030762       101.710513                                              
                                 5           189.723282       88.2542044       101.861641                                              
                                 6           190.025538       88.4053326       102.012769                                              
                                 7           190.327795       88.5564608       102.163897                                              
                                 8           190.630051       88.7075890       102.315026                                              
                                 9           190.932308       88.8587172       102.466154                                              
                                 10          191.234564       89.0098455       102.617282                                              
                                 11          191.536821       89.1609737       102.768410                                              
                                 12          191.839077       89.3121019       102.919538                                              
                                 13          192.141333       89.4632301       103.070667                                              
                                 14          192.443590       89.6143583       103.221795                                              
                                 15          192.745846       89.7654865       103.372923                                              
                                 16          193.048103       89.9166147       103.524051                                              
                                 17          193.350359       90.0677429       103.675179                                              
                                 18          193.652615       90.2188711       103.826308                                              
                                 19          193.954872       90.3699993       103.977436                                              
                                 20          194.257128       90.5211275       104.128564                                              
                                 21          194.559385       90.6722557       104.279692                                              
                                 22          194.861641       90.8233839       104.430821                                              
                                 23          195.163897       90.9745121       104.581949                                              
                                 24          195.466154       91.1256403       104.733077                                              
                                 25          195.768410       91.2767685       104.884205                                              
                                 26          196.070667       91.4278967       105.035333                                              
                                 27          196.372923       91.5790249       105.186462                                              
                                 28          196.675179       91.7301531       105.337590                                              
                                 29          196.977436       91.8812814       105.488718                                              
                                 30          197.279692       92.0324096       105.639846                                              
                                 31          197.581949       92.1835378       105.790974                                              
                                 32          197.884205       92.3346660       105.942103                                              
                                 33          198.186462       92.4857942       106.093231                                              
                                 34          198.488718       92.6369224       106.244359                                              
                                 35          198.790974       92.7880506       106.395487                                              
                                 36          199.093231       92.9391788       106.546615                                              
                                 37          199.395487       93.0903070       106.697744                                              
                                 38          199.697744       93.2414352       106.848872                                              
                                 39          200.000000       93.3925634       107.000000                                              
 375              (1,8,9)        1           188.514256       87.5586155       101.257128      01_08_09                                
                                 2           188.816513       87.7097437       101.408256                                              
                                 3           189.118769       87.8608719       101.559385                                              
                                 4           189.421026       88.0120001       101.710513                                              
                                 5           189.723282       88.1631283       101.861641                                              
                                 6           190.025538       88.3142565       102.012769                                              
                                 7           190.327795       88.4653847       102.163897                                              
                                 8           190.630051       88.6165129       102.315026                                              
                                 9           190.932308       88.7676412       102.466154                                              
                                 10          191.234564       88.9187694       102.617282                                              
                                 11          191.536821       89.0698976       102.768410                                              
                                 12          191.839077       89.2210258       102.919538                                              
                                 13          192.141333       89.3721540       103.070667                                              
                                 14          192.443590       89.5232822       103.221795                                              
                                 15          192.745846       89.6744104       103.372923                                              
                                 16          193.048103       89.8255386       103.524051                                              
                                 17          193.350359       89.9766668       103.675179                                              
                                 18          193.652615       90.1277950       103.826308                                              
                                 19          193.954872       90.2789232       103.977436                                              
                                 20          194.257128       90.4300514       104.128564                                              
                                 21          194.559385       90.5811796       104.279692                                              
                                 22          194.861641       90.7323078       104.430821                                              
                                 23          195.163897       90.8834360       104.581949                                              
                                 24          195.466154       91.0345642       104.733077                                              
                                 25          195.768410       91.1856924       104.884205                                              
                                 26          196.070667       91.3368206       105.035333                                              
                                 27          196.372923       91.4879488       105.186462                                              
                                 28          196.675179       91.6390770       105.337590                                              
                                 29          196.977436       91.7902053       105.488718                                              
                                 30          197.279692       91.9413335       105.639846                                              
                                 31          197.581949       92.0924617       105.790974                                              
                                 32          197.884205       92.2435899       105.942103                                              
                                 33          198.186462       92.3947181       106.093231                                              
                                 34          198.488718       92.5458463       106.244359                                              
                                 35          198.790974       92.6969745       106.395487                                              
                                 36          199.093231       92.8481027       106.546615                                              
                                 37          199.395487       92.9992309       106.697744                                              
                                 38          199.697744       93.1503591       106.848872                                              
                                 39          200.000000       93.3014873       107.000000                                              
 376              (1,8,10)       1           188.514256       87.5027834       101.257128      01_08_10                                
                                 2           188.816513       87.6539116       101.408256                                              
                                 3           189.118769       87.8050398       101.559385                                              
                                 4           189.421026       87.9561680       101.710513                                              
                                 5           189.723282       88.1072962       101.861641                                              
                                 6           190.025538       88.2584244       102.012769                                              
                                 7           190.327795       88.4095526       102.163897                                              
                                 8           190.630051       88.5606808       102.315026                                              
                                 9           190.932308       88.7118090       102.466154                                              
                                 10          191.234564       88.8629372       102.617282                                              
                                 11          191.536821       89.0140654       102.768410                                              
                                 12          191.839077       89.1651936       102.919538                                              
                                 13          192.141333       89.3163218       103.070667                                              
                                 14          192.443590       89.4674500       103.221795                                              
                                 15          192.745846       89.6185782       103.372923                                              
                                 16          193.048103       89.7697064       103.524051                                              
                                 17          193.350359       89.9208346       103.675179                                              
                                 18          193.652615       90.0719628       103.826308                                              
                                 19          193.954872       90.2230910       103.977436                                              
                                 20          194.257128       90.3742192       104.128564                                              
                                 21          194.559385       90.5253475       104.279692                                              
                                 22          194.861641       90.6764757       104.430821                                              
                                 23          195.163897       90.8276039       104.581949                                              
                                 24          195.466154       90.9787321       104.733077                                              
                                 25          195.768410       91.1298603       104.884205                                              
                                 26          196.070667       91.2809885       105.035333                                              
                                 27          196.372923       91.4321167       105.186462                                              
                                 28          196.675179       91.5832449       105.337590                                              
                                 29          196.977436       91.7343731       105.488718                                              
                                 30          197.279692       91.8855013       105.639846                                              
                                 31          197.581949       92.0366295       105.790974                                              
                                 32          197.884205       92.1877577       105.942103                                              
                                 33          198.186462       92.3388859       106.093231                                              
                                 34          198.488718       92.4900141       106.244359                                              
                                 35          198.790974       92.6411423       106.395487                                              
                                 36          199.093231       92.7922705       106.546615                                              
                                 37          199.395487       92.9433987       106.697744                                              
                                 38          199.697744       93.0945269       106.848872                                              
                                 39          200.000000       93.2456551       107.000000                                              
 377              (1,9,1)        1           188.514256       89.7328926       101.257128      01_09_01                                
                                 2           188.816513       89.8840208       101.408256                                              
                                 3           189.118769       90.0351490       101.559385                                              
                                 4           189.421026       90.1862772       101.710513                                              
                                 5           189.723282       90.3374054       101.861641                                              
                                 6           190.025538       90.4885336       102.012769                                              
                                 7           190.327795       90.6396618       102.163897                                              
                                 8           190.630051       90.7907900       102.315026                                              
                                 9           190.932308       90.9419182       102.466154                                              
                                 10          191.234564       91.0930464       102.617282                                              
                                 11          191.536821       91.2441746       102.768410                                              
                                 12          191.839077       91.3953028       102.919538                                              
                                 13          192.141333       91.5464310       103.070667                                              
                                 14          192.443590       91.6975592       103.221795                                              
                                 15          192.745846       91.8486875       103.372923                                              
                                 16          193.048103       91.9998157       103.524051                                              
                                 17          193.350359       92.1509439       103.675179                                              
                                 18          193.652615       92.3020721       103.826308                                              
                                 19          193.954872       92.4532003       103.977436                                              
                                 20          194.257128       92.6043285       104.128564                                              
                                 21          194.559385       92.7554567       104.279692                                              
                                 22          194.861641       92.9065849       104.430821                                              
                                 23          195.163897       93.0577131       104.581949                                              
                                 24          195.466154       93.2088413       104.733077                                              
                                 25          195.768410       93.3599695       104.884205                                              
                                 26          196.070667       93.5110977       105.035333                                              
                                 27          196.372923       93.6622259       105.186462                                              
                                 28          196.675179       93.8133541       105.337590                                              
                                 29          196.977436       93.9644823       105.488718                                              
                                 30          197.279692       94.1156105       105.639846                                              
                                 31          197.581949       94.2667387       105.790974                                              
                                 32          197.884205       94.4178669       105.942103                                              
                                 33          198.186462       94.5689951       106.093231                                              
                                 34          198.488718       94.7201234       106.244359                                              
                                 35          198.790974       94.8712516       106.395487                                              
                                 36          199.093231       95.0223798       106.546615                                              
                                 37          199.395487       95.1735080       106.697744                                              
                                 38          199.697744       95.3246362       106.848872                                              
                                 39          200.000000       95.4757644       107.000000                                              
 378              (1,9,2)        1           188.514256       89.9070317       101.257128      01_09_02                                
                                 2           188.816513       90.0581599       101.408256                                              
                                 3           189.118769       90.2092881       101.559385                                              
                                 4           189.421026       90.3604163       101.710513                                              
                                 5           189.723282       90.5115445       101.861641                                              
                                 6           190.025538       90.6626727       102.012769                                              
                                 7           190.327795       90.8138009       102.163897                                              
                                 8           190.630051       90.9649292       102.315026                                              
                                 9           190.932308       91.1160574       102.466154                                              
                                 10          191.234564       91.2671856       102.617282                                              
                                 11          191.536821       91.4183138       102.768410                                              
                                 12          191.839077       91.5694420       102.919538                                              
                                 13          192.141333       91.7205702       103.070667                                              
                                 14          192.443590       91.8716984       103.221795                                              
                                 15          192.745846       92.0228266       103.372923                                              
                                 16          193.048103       92.1739548       103.524051                                              
                                 17          193.350359       92.3250830       103.675179                                              
                                 18          193.652615       92.4762112       103.826308                                              
                                 19          193.954872       92.6273394       103.977436                                              
                                 20          194.257128       92.7784676       104.128564                                              
                                 21          194.559385       92.9295958       104.279692                                              
                                 22          194.861641       93.0807240       104.430821                                              
                                 23          195.163897       93.2318522       104.581949                                              
                                 24          195.466154       93.3829804       104.733077                                              
                                 25          195.768410       93.5341086       104.884205                                              
                                 26          196.070667       93.6852368       105.035333                                              
                                 27          196.372923       93.8363651       105.186462                                              
                                 28          196.675179       93.9874933       105.337590                                              
                                 29          196.977436       94.1386215       105.488718                                              
                                 30          197.279692       94.2897497       105.639846                                              
                                 31          197.581949       94.4408779       105.790974                                              
                                 32          197.884205       94.5920061       105.942103                                              
                                 33          198.186462       94.7431343       106.093231                                              
                                 34          198.488718       94.8942625       106.244359                                              
                                 35          198.790974       95.0453907       106.395487                                              
                                 36          199.093231       95.1965189       106.546615                                              
                                 37          199.395487       95.3476471       106.697744                                              
                                 38          199.697744       95.4987753       106.848872                                              
                                 39          200.000000       95.6499035       107.000000                                              
 379              (1,9,3)        1           188.514256       90.2178691       101.257128      01_09_03                                
                                 2           188.816513       90.3689973       101.408256                                              
                                 3           189.118769       90.5201255       101.559385                                              
                                 4           189.421026       90.6712537       101.710513                                              
                                 5           189.723282       90.8223819       101.861641                                              
                                 6           190.025538       90.9735101       102.012769                                              
                                 7           190.327795       91.1246383       102.163897                                              
                                 8           190.630051       91.2757665       102.315026                                              
                                 9           190.932308       91.4268947       102.466154                                              
                                 10          191.234564       91.5780229       102.617282                                              
                                 11          191.536821       91.7291511       102.768410                                              
                                 12          191.839077       91.8802793       102.919538                                              
                                 13          192.141333       92.0314075       103.070667                                              
                                 14          192.443590       92.1825358       103.221795                                              
                                 15          192.745846       92.3336640       103.372923                                              
                                 16          193.048103       92.4847922       103.524051                                              
                                 17          193.350359       92.6359204       103.675179                                              
                                 18          193.652615       92.7870486       103.826308                                              
                                 19          193.954872       92.9381768       103.977436                                              
                                 20          194.257128       93.0893050       104.128564                                              
                                 21          194.559385       93.2404332       104.279692                                              
                                 22          194.861641       93.3915614       104.430821                                              
                                 23          195.163897       93.5426896       104.581949                                              
                                 24          195.466154       93.6938178       104.733077                                              
                                 25          195.768410       93.8449460       104.884205                                              
                                 26          196.070667       93.9960742       105.035333                                              
                                 27          196.372923       94.1472024       105.186462                                              
                                 28          196.675179       94.2983306       105.337590                                              
                                 29          196.977436       94.4494588       105.488718                                              
                                 30          197.279692       94.6005870       105.639846                                              
                                 31          197.581949       94.7517152       105.790974                                              
                                 32          197.884205       94.9028434       105.942103                                              
                                 33          198.186462       95.0539716       106.093231                                              
                                 34          198.488718       95.2050999       106.244359                                              
                                 35          198.790974       95.3562281       106.395487                                              
                                 36          199.093231       95.5073563       106.546615                                              
                                 37          199.395487       95.6584845       106.697744                                              
                                 38          199.697744       95.8096127       106.848872                                              
                                 39          200.000000       95.9607409       107.000000                                              
 380              (1,9,4)        1           188.514256       90.5670543       101.257128      01_09_04                                
                                 2           188.816513       90.7181825       101.408256                                              
                                 3           189.118769       90.8693107       101.559385                                              
                                 4           189.421026       91.0204389       101.710513                                              
                                 5           189.723282       91.1715671       101.861641                                              
                                 6           190.025538       91.3226953       102.012769                                              
                                 7           190.327795       91.4738235       102.163897                                              
                                 8           190.630051       91.6249517       102.315026                                              
                                 9           190.932308       91.7760799       102.466154                                              
                                 10          191.234564       91.9272081       102.617282                                              
                                 11          191.536821       92.0783363       102.768410                                              
                                 12          191.839077       92.2294645       102.919538                                              
                                 13          192.141333       92.3805927       103.070667                                              
                                 14          192.443590       92.5317209       103.221795                                              
                                 15          192.745846       92.6828491       103.372923                                              
                                 16          193.048103       92.8339773       103.524051                                              
                                 17          193.350359       92.9851055       103.675179                                              
                                 18          193.652615       93.1362337       103.826308                                              
                                 19          193.954872       93.2873620       103.977436                                              
                                 20          194.257128       93.4384902       104.128564                                              
                                 21          194.559385       93.5896184       104.279692                                              
                                 22          194.861641       93.7407466       104.430821                                              
                                 23          195.163897       93.8918748       104.581949                                              
                                 24          195.466154       94.0430030       104.733077                                              
                                 25          195.768410       94.1941312       104.884205                                              
                                 26          196.070667       94.3452594       105.035333                                              
                                 27          196.372923       94.4963876       105.186462                                              
                                 28          196.675179       94.6475158       105.337590                                              
                                 29          196.977436       94.7986440       105.488718                                              
                                 30          197.279692       94.9497722       105.639846                                              
                                 31          197.581949       95.1009004       105.790974                                              
                                 32          197.884205       95.2520286       105.942103                                              
                                 33          198.186462       95.4031568       106.093231                                              
                                 34          198.488718       95.5542850       106.244359                                              
                                 35          198.790974       95.7054132       106.395487                                              
                                 36          199.093231       95.8565414       106.546615                                              
                                 37          199.395487       96.0076696       106.697744                                              
                                 38          199.697744       96.1587979       106.848872                                              
                                 39          200.000000       96.3099261       107.000000                                              
 381              (1,9,5)        1           188.514256       90.7156861       101.257128      01_09_05                                
                                 2           188.816513       90.8668143       101.408256                                              
                                 3           189.118769       91.0179425       101.559385                                              
                                 4           189.421026       91.1690707       101.710513                                              
                                 5           189.723282       91.3201989       101.861641                                              
                                 6           190.025538       91.4713271       102.012769                                              
                                 7           190.327795       91.6224553       102.163897                                              
                                 8           190.630051       91.7735835       102.315026                                              
                                 9           190.932308       91.9247117       102.466154                                              
                                 10          191.234564       92.0758399       102.617282                                              
                                 11          191.536821       92.2269681       102.768410                                              
                                 12          191.839077       92.3780963       102.919538                                              
                                 13          192.141333       92.5292245       103.070667                                              
                                 14          192.443590       92.6803527       103.221795                                              
                                 15          192.745846       92.8314809       103.372923                                              
                                 16          193.048103       92.9826091       103.524051                                              
                                 17          193.350359       93.1337373       103.675179                                              
                                 18          193.652615       93.2848655       103.826308                                              
                                 19          193.954872       93.4359937       103.977436                                              
                                 20          194.257128       93.5871220       104.128564                                              
                                 21          194.559385       93.7382502       104.279692                                              
                                 22          194.861641       93.8893784       104.430821                                              
                                 23          195.163897       94.0405066       104.581949                                              
                                 24          195.466154       94.1916348       104.733077                                              
                                 25          195.768410       94.3427630       104.884205                                              
                                 26          196.070667       94.4938912       105.035333                                              
                                 27          196.372923       94.6450194       105.186462                                              
                                 28          196.675179       94.7961476       105.337590                                              
                                 29          196.977436       94.9472758       105.488718                                              
                                 30          197.279692       95.0984040       105.639846                                              
                                 31          197.581949       95.2495322       105.790974                                              
                                 32          197.884205       95.4006604       105.942103                                              
                                 33          198.186462       95.5517886       106.093231                                              
                                 34          198.488718       95.7029168       106.244359                                              
                                 35          198.790974       95.8540450       106.395487                                              
                                 36          199.093231       96.0051732       106.546615                                              
                                 37          199.395487       96.1563014       106.697744                                              
                                 38          199.697744       96.3074296       106.848872                                              
                                 39          200.000000       96.4585578       107.000000                                              
 382              (1,9,6)        1           188.514256       90.7212861       101.257128      01_09_06                                
                                 2           188.816513       90.8724143       101.408256                                              
                                 3           189.118769       91.0235425       101.559385                                              
                                 4           189.421026       91.1746707       101.710513                                              
                                 5           189.723282       91.3257989       101.861641                                              
                                 6           190.025538       91.4769271       102.012769                                              
                                 7           190.327795       91.6280553       102.163897                                              
                                 8           190.630051       91.7791835       102.315026                                              
                                 9           190.932308       91.9303117       102.466154                                              
                                 10          191.234564       92.0814399       102.617282                                              
                                 11          191.536821       92.2325681       102.768410                                              
                                 12          191.839077       92.3836964       102.919538                                              
                                 13          192.141333       92.5348246       103.070667                                              
                                 14          192.443590       92.6859528       103.221795                                              
                                 15          192.745846       92.8370810       103.372923                                              
                                 16          193.048103       92.9882092       103.524051                                              
                                 17          193.350359       93.1393374       103.675179                                              
                                 18          193.652615       93.2904656       103.826308                                              
                                 19          193.954872       93.4415938       103.977436                                              
                                 20          194.257128       93.5927220       104.128564                                              
                                 21          194.559385       93.7438502       104.279692                                              
                                 22          194.861641       93.8949784       104.430821                                              
                                 23          195.163897       94.0461066       104.581949                                              
                                 24          195.466154       94.1972348       104.733077                                              
                                 25          195.768410       94.3483630       104.884205                                              
                                 26          196.070667       94.4994912       105.035333                                              
                                 27          196.372923       94.6506194       105.186462                                              
                                 28          196.675179       94.8017476       105.337590                                              
                                 29          196.977436       94.9528758       105.488718                                              
                                 30          197.279692       95.1040040       105.639846                                              
                                 31          197.581949       95.2551322       105.790974                                              
                                 32          197.884205       95.4062605       105.942103                                              
                                 33          198.186462       95.5573887       106.093231                                              
                                 34          198.488718       95.7085169       106.244359                                              
                                 35          198.790974       95.8596451       106.395487                                              
                                 36          199.093231       96.0107733       106.546615                                              
                                 37          199.395487       96.1619015       106.697744                                              
                                 38          199.697744       96.3130297       106.848872                                              
                                 39          200.000000       96.4641579       107.000000                                              
 383              (1,9,7)        1           188.514256       90.5837500       101.257128      01_09_07                                
                                 2           188.816513       90.7348782       101.408256                                              
                                 3           189.118769       90.8860064       101.559385                                              
                                 4           189.421026       91.0371346       101.710513                                              
                                 5           189.723282       91.1882628       101.861641                                              
                                 6           190.025538       91.3393910       102.012769                                              
                                 7           190.327795       91.4905192       102.163897                                              
                                 8           190.630051       91.6416474       102.315026                                              
                                 9           190.932308       91.7927756       102.466154                                              
                                 10          191.234564       91.9439038       102.617282                                              
                                 11          191.536821       92.0950321       102.768410                                              
                                 12          191.839077       92.2461603       102.919538                                              
                                 13          192.141333       92.3972885       103.070667                                              
                                 14          192.443590       92.5484167       103.221795                                              
                                 15          192.745846       92.6995449       103.372923                                              
                                 16          193.048103       92.8506731       103.524051                                              
                                 17          193.350359       93.0018013       103.675179                                              
                                 18          193.652615       93.1529295       103.826308                                              
                                 19          193.954872       93.3040577       103.977436                                              
                                 20          194.257128       93.4551859       104.128564                                              
                                 21          194.559385       93.6063141       104.279692                                              
                                 22          194.861641       93.7574423       104.430821                                              
                                 23          195.163897       93.9085705       104.581949                                              
                                 24          195.466154       94.0596987       104.733077                                              
                                 25          195.768410       94.2108269       104.884205                                              
                                 26          196.070667       94.3619551       105.035333                                              
                                 27          196.372923       94.5130833       105.186462                                              
                                 28          196.675179       94.6642115       105.337590                                              
                                 29          196.977436       94.8153397       105.488718                                              
                                 30          197.279692       94.9664680       105.639846                                              
                                 31          197.581949       95.1175962       105.790974                                              
                                 32          197.884205       95.2687244       105.942103                                              
                                 33          198.186462       95.4198526       106.093231                                              
                                 34          198.488718       95.5709808       106.244359                                              
                                 35          198.790974       95.7221090       106.395487                                              
                                 36          199.093231       95.8732372       106.546615                                              
                                 37          199.395487       96.0243654       106.697744                                              
                                 38          199.697744       96.1754936       106.848872                                              
                                 39          200.000000       96.3266218       107.000000                                              
 384              (1,9,8)        1           188.514256       90.2455324       101.257128      01_09_08                                
                                 2           188.816513       90.3966606       101.408256                                              
                                 3           189.118769       90.5477888       101.559385                                              
                                 4           189.421026       90.6989170       101.710513                                              
                                 5           189.723282       90.8500452       101.861641                                              
                                 6           190.025538       91.0011734       102.012769                                              
                                 7           190.327795       91.1523016       102.163897                                              
                                 8           190.630051       91.3034298       102.315026                                              
                                 9           190.932308       91.4545580       102.466154                                              
                                 10          191.234564       91.6056862       102.617282                                              
                                 11          191.536821       91.7568144       102.768410                                              
                                 12          191.839077       91.9079426       102.919538                                              
                                 13          192.141333       92.0590708       103.070667                                              
                                 14          192.443590       92.2101990       103.221795                                              
                                 15          192.745846       92.3613272       103.372923                                              
                                 16          193.048103       92.5124554       103.524051                                              
                                 17          193.350359       92.6635836       103.675179                                              
                                 18          193.652615       92.8147118       103.826308                                              
                                 19          193.954872       92.9658401       103.977436                                              
                                 20          194.257128       93.1169683       104.128564                                              
                                 21          194.559385       93.2680965       104.279692                                              
                                 22          194.861641       93.4192247       104.430821                                              
                                 23          195.163897       93.5703529       104.581949                                              
                                 24          195.466154       93.7214811       104.733077                                              
                                 25          195.768410       93.8726093       104.884205                                              
                                 26          196.070667       94.0237375       105.035333                                              
                                 27          196.372923       94.1748657       105.186462                                              
                                 28          196.675179       94.3259939       105.337590                                              
                                 29          196.977436       94.4771221       105.488718                                              
                                 30          197.279692       94.6282503       105.639846                                              
                                 31          197.581949       94.7793785       105.790974                                              
                                 32          197.884205       94.9305067       105.942103                                              
                                 33          198.186462       95.0816349       106.093231                                              
                                 34          198.488718       95.2327631       106.244359                                              
                                 35          198.790974       95.3838913       106.395487                                              
                                 36          199.093231       95.5350195       106.546615                                              
                                 37          199.395487       95.6861477       106.697744                                              
                                 38          199.697744       95.8372760       106.848872                                              
                                 39          200.000000       95.9884042       107.000000                                              
 385              (1,9,9)        1           188.514256       89.9431662       101.257128      01_09_09                                
                                 2           188.816513       90.0942945       101.408256                                              
                                 3           189.118769       90.2454227       101.559385                                              
                                 4           189.421026       90.3965509       101.710513                                              
                                 5           189.723282       90.5476791       101.861641                                              
                                 6           190.025538       90.6988073       102.012769                                              
                                 7           190.327795       90.8499355       102.163897                                              
                                 8           190.630051       91.0010637       102.315026                                              
                                 9           190.932308       91.1521919       102.466154                                              
                                 10          191.234564       91.3033201       102.617282                                              
                                 11          191.536821       91.4544483       102.768410                                              
                                 12          191.839077       91.6055765       102.919538                                              
                                 13          192.141333       91.7567047       103.070667                                              
                                 14          192.443590       91.9078329       103.221795                                              
                                 15          192.745846       92.0589611       103.372923                                              
                                 16          193.048103       92.2100893       103.524051                                              
                                 17          193.350359       92.3612175       103.675179                                              
                                 18          193.652615       92.5123457       103.826308                                              
                                 19          193.954872       92.6634739       103.977436                                              
                                 20          194.257128       92.8146021       104.128564                                              
                                 21          194.559385       92.9657304       104.279692                                              
                                 22          194.861641       93.1168586       104.430821                                              
                                 23          195.163897       93.2679868       104.581949                                              
                                 24          195.466154       93.4191150       104.733077                                              
                                 25          195.768410       93.5702432       104.884205                                              
                                 26          196.070667       93.7213714       105.035333                                              
                                 27          196.372923       93.8724996       105.186462                                              
                                 28          196.675179       94.0236278       105.337590                                              
                                 29          196.977436       94.1747560       105.488718                                              
                                 30          197.279692       94.3258842       105.639846                                              
                                 31          197.581949       94.4770124       105.790974                                              
                                 32          197.884205       94.6281406       105.942103                                              
                                 33          198.186462       94.7792688       106.093231                                              
                                 34          198.488718       94.9303970       106.244359                                              
                                 35          198.790974       95.0815252       106.395487                                              
                                 36          199.093231       95.2326534       106.546615                                              
                                 37          199.395487       95.3837816       106.697744                                              
                                 38          199.697744       95.5349098       106.848872                                              
                                 39          200.000000       95.6860380       107.000000                                              
 386              (1,9,10)       1           188.514256       89.7736015       101.257128      01_09_10                                
                                 2           188.816513       89.9247297       101.408256                                              
                                 3           189.118769       90.0758579       101.559385                                              
                                 4           189.421026       90.2269861       101.710513                                              
                                 5           189.723282       90.3781144       101.861641                                              
                                 6           190.025538       90.5292426       102.012769                                              
                                 7           190.327795       90.6803708       102.163897                                              
                                 8           190.630051       90.8314990       102.315026                                              
                                 9           190.932308       90.9826272       102.466154                                              
                                 10          191.234564       91.1337554       102.617282                                              
                                 11          191.536821       91.2848836       102.768410                                              
                                 12          191.839077       91.4360118       102.919538                                              
                                 13          192.141333       91.5871400       103.070667                                              
                                 14          192.443590       91.7382682       103.221795                                              
                                 15          192.745846       91.8893964       103.372923                                              
                                 16          193.048103       92.0405246       103.524051                                              
                                 17          193.350359       92.1916528       103.675179                                              
                                 18          193.652615       92.3427810       103.826308                                              
                                 19          193.954872       92.4939092       103.977436                                              
                                 20          194.257128       92.6450374       104.128564                                              
                                 21          194.559385       92.7961656       104.279692                                              
                                 22          194.861641       92.9472938       104.430821                                              
                                 23          195.163897       93.0984220       104.581949                                              
                                 24          195.466154       93.2495503       104.733077                                              
                                 25          195.768410       93.4006785       104.884205                                              
                                 26          196.070667       93.5518067       105.035333                                              
                                 27          196.372923       93.7029349       105.186462                                              
                                 28          196.675179       93.8540631       105.337590                                              
                                 29          196.977436       94.0051913       105.488718                                              
                                 30          197.279692       94.1563195       105.639846                                              
                                 31          197.581949       94.3074477       105.790974                                              
                                 32          197.884205       94.4585759       105.942103                                              
                                 33          198.186462       94.6097041       106.093231                                              
                                 34          198.488718       94.7608323       106.244359                                              
                                 35          198.790974       94.9119605       106.395487                                              
                                 36          199.093231       95.0630887       106.546615                                              
                                 37          199.395487       95.2142169       106.697744                                              
                                 38          199.697744       95.3653451       106.848872                                              
                                 39          200.000000       95.5164733       107.000000                                              
 387              (1,10,1)       1           188.514256       91.3798952       101.257128      01_10_01                                
                                 2           188.816513       91.5310234       101.408256                                              
                                 3           189.118769       91.6821516       101.559385                                              
                                 4           189.421026       91.8332798       101.710513                                              
                                 5           189.723282       91.9844080       101.861641                                              
                                 6           190.025538       92.1355362       102.012769                                              
                                 7           190.327795       92.2866644       102.163897                                              
                                 8           190.630051       92.4377926       102.315026                                              
                                 9           190.932308       92.5889208       102.466154                                              
                                 10          191.234564       92.7400490       102.617282                                              
                                 11          191.536821       92.8911772       102.768410                                              
                                 12          191.839077       93.0423054       102.919538                                              
                                 13          192.141333       93.1934336       103.070667                                              
                                 14          192.443590       93.3445618       103.221795                                              
                                 15          192.745846       93.4956900       103.372923                                              
                                 16          193.048103       93.6468182       103.524051                                              
                                 17          193.350359       93.7979464       103.675179                                              
                                 18          193.652615       93.9490746       103.826308                                              
                                 19          193.954872       94.1002029       103.977436                                              
                                 20          194.257128       94.2513311       104.128564                                              
                                 21          194.559385       94.4024593       104.279692                                              
                                 22          194.861641       94.5535875       104.430821                                              
                                 23          195.163897       94.7047157       104.581949                                              
                                 24          195.466154       94.8558439       104.733077                                              
                                 25          195.768410       95.0069721       104.884205                                              
                                 26          196.070667       95.1581003       105.035333                                              
                                 27          196.372923       95.3092285       105.186462                                              
                                 28          196.675179       95.4603567       105.337590                                              
                                 29          196.977436       95.6114849       105.488718                                              
                                 30          197.279692       95.7626131       105.639846                                              
                                 31          197.581949       95.9137413       105.790974                                              
                                 32          197.884205       96.0648695       105.942103                                              
                                 33          198.186462       96.2159977       106.093231                                              
                                 34          198.488718       96.3671259       106.244359                                              
                                 35          198.790974       96.5182541       106.395487                                              
                                 36          199.093231       96.6693823       106.546615                                              
                                 37          199.395487       96.8205105       106.697744                                              
                                 38          199.697744       96.9716388       106.848872                                              
                                 39          200.000000       97.1227670       107.000000                                              
 388              (1,10,2)       1           188.514256       91.8029440       101.257128      01_10_02                                
                                 2           188.816513       91.9540722       101.408256                                              
                                 3           189.118769       92.1052004       101.559385                                              
                                 4           189.421026       92.2563286       101.710513                                              
                                 5           189.723282       92.4074568       101.861641                                              
                                 6           190.025538       92.5585851       102.012769                                              
                                 7           190.327795       92.7097133       102.163897                                              
                                 8           190.630051       92.8608415       102.315026                                              
                                 9           190.932308       93.0119697       102.466154                                              
                                 10          191.234564       93.1630979       102.617282                                              
                                 11          191.536821       93.3142261       102.768410                                              
                                 12          191.839077       93.4653543       102.919538                                              
                                 13          192.141333       93.6164825       103.070667                                              
                                 14          192.443590       93.7676107       103.221795                                              
                                 15          192.745846       93.9187389       103.372923                                              
                                 16          193.048103       94.0698671       103.524051                                              
                                 17          193.350359       94.2209953       103.675179                                              
                                 18          193.652615       94.3721235       103.826308                                              
                                 19          193.954872       94.5232517       103.977436                                              
                                 20          194.257128       94.6743799       104.128564                                              
                                 21          194.559385       94.8255081       104.279692                                              
                                 22          194.861641       94.9766363       104.430821                                              
                                 23          195.163897       95.1277645       104.581949                                              
                                 24          195.466154       95.2788927       104.733077                                              
                                 25          195.768410       95.4300209       104.884205                                              
                                 26          196.070667       95.5811492       105.035333                                              
                                 27          196.372923       95.7322774       105.186462                                              
                                 28          196.675179       95.8834056       105.337590                                              
                                 29          196.977436       96.0345338       105.488718                                              
                                 30          197.279692       96.1856620       105.639846                                              
                                 31          197.581949       96.3367902       105.790974                                              
                                 32          197.884205       96.4879184       105.942103                                              
                                 33          198.186462       96.6390466       106.093231                                              
                                 34          198.488718       96.7901748       106.244359                                              
                                 35          198.790974       96.9413030       106.395487                                              
                                 36          199.093231       97.0924312       106.546615                                              
                                 37          199.395487       97.2435594       106.697744                                              
                                 38          199.697744       97.3946876       106.848872                                              
                                 39          200.000000       97.5458158       107.000000                                              
 389              (1,10,3)       1           188.514256       92.7117704       101.257128      01_10_03                                
                                 2           188.816513       92.8628986       101.408256                                              
                                 3           189.118769       93.0140268       101.559385                                              
                                 4           189.421026       93.1651550       101.710513                                              
                                 5           189.723282       93.3162832       101.861641                                              
                                 6           190.025538       93.4674114       102.012769                                              
                                 7           190.327795       93.6185396       102.163897                                              
                                 8           190.630051       93.7696678       102.315026                                              
                                 9           190.932308       93.9207960       102.466154                                              
                                 10          191.234564       94.0719242       102.617282                                              
                                 11          191.536821       94.2230524       102.768410                                              
                                 12          191.839077       94.3741806       102.919538                                              
                                 13          192.141333       94.5253088       103.070667                                              
                                 14          192.443590       94.6764370       103.221795                                              
                                 15          192.745846       94.8275652       103.372923                                              
                                 16          193.048103       94.9786935       103.524051                                              
                                 17          193.350359       95.1298217       103.675179                                              
                                 18          193.652615       95.2809499       103.826308                                              
                                 19          193.954872       95.4320781       103.977436                                              
                                 20          194.257128       95.5832063       104.128564                                              
                                 21          194.559385       95.7343345       104.279692                                              
                                 22          194.861641       95.8854627       104.430821                                              
                                 23          195.163897       96.0365909       104.581949                                              
                                 24          195.466154       96.1877191       104.733077                                              
                                 25          195.768410       96.3388473       104.884205                                              
                                 26          196.070667       96.4899755       105.035333                                              
                                 27          196.372923       96.6411037       105.186462                                              
                                 28          196.675179       96.7922319       105.337590                                              
                                 29          196.977436       96.9433601       105.488718                                              
                                 30          197.279692       97.0944883       105.639846                                              
                                 31          197.581949       97.2456165       105.790974                                              
                                 32          197.884205       97.3967447       105.942103                                              
                                 33          198.186462       97.5478729       106.093231                                              
                                 34          198.488718       97.6990011       106.244359                                              
                                 35          198.790974       97.8501293       106.395487                                              
                                 36          199.093231       98.0012576       106.546615                                              
                                 37          199.395487       98.1523858       106.697744                                              
                                 38          199.697744       98.3035140       106.848872                                              
                                 39          200.000000       98.4546422       107.000000                                              
 390              (1,10,8)       1           188.514256       92.7237765       101.257128      01_10_08                                
                                 2           188.816513       92.8749047       101.408256                                              
                                 3           189.118769       93.0260329       101.559385                                              
                                 4           189.421026       93.1771611       101.710513                                              
                                 5           189.723282       93.3282893       101.861641                                              
                                 6           190.025538       93.4794175       102.012769                                              
                                 7           190.327795       93.6305457       102.163897                                              
                                 8           190.630051       93.7816739       102.315026                                              
                                 9           190.932308       93.9328022       102.466154                                              
                                 10          191.234564       94.0839304       102.617282                                              
                                 11          191.536821       94.2350586       102.768410                                              
                                 12          191.839077       94.3861868       102.919538                                              
                                 13          192.141333       94.5373150       103.070667                                              
                                 14          192.443590       94.6884432       103.221795                                              
                                 15          192.745846       94.8395714       103.372923                                              
                                 16          193.048103       94.9906996       103.524051                                              
                                 17          193.350359       95.1418278       103.675179                                              
                                 18          193.652615       95.2929560       103.826308                                              
                                 19          193.954872       95.4440842       103.977436                                              
                                 20          194.257128       95.5952124       104.128564                                              
                                 21          194.559385       95.7463406       104.279692                                              
                                 22          194.861641       95.8974688       104.430821                                              
                                 23          195.163897       96.0485970       104.581949                                              
                                 24          195.466154       96.1997252       104.733077                                              
                                 25          195.768410       96.3508534       104.884205                                              
                                 26          196.070667       96.5019816       105.035333                                              
                                 27          196.372923       96.6531098       105.186462                                              
                                 28          196.675179       96.8042381       105.337590                                              
                                 29          196.977436       96.9553663       105.488718                                              
                                 30          197.279692       97.1064945       105.639846                                              
                                 31          197.581949       97.2576227       105.790974                                              
                                 32          197.884205       97.4087509       105.942103                                              
                                 33          198.186462       97.5598791       106.093231                                              
                                 34          198.488718       97.7110073       106.244359                                              
                                 35          198.790974       97.8621355       106.395487                                              
                                 36          199.093231       98.0132637       106.546615                                              
                                 37          199.395487       98.1643919       106.697744                                              
                                 38          199.697744       98.3155201       106.848872                                              
                                 39          200.000000       98.4666483       107.000000                                              
 391              (1,10,9)       1           188.514256       91.8230494       101.257128      01_10_09                                
                                 2           188.816513       91.9741776       101.408256                                              
                                 3           189.118769       92.1253058       101.559385                                              
                                 4           189.421026       92.2764340       101.710513                                              
                                 5           189.723282       92.4275622       101.861641                                              
                                 6           190.025538       92.5786904       102.012769                                              
                                 7           190.327795       92.7298186       102.163897                                              
                                 8           190.630051       92.8809468       102.315026                                              
                                 9           190.932308       93.0320750       102.466154                                              
                                 10          191.234564       93.1832032       102.617282                                              
                                 11          191.536821       93.3343314       102.768410                                              
                                 12          191.839077       93.4854596       102.919538                                              
                                 13          192.141333       93.6365878       103.070667                                              
                                 14          192.443590       93.7877160       103.221795                                              
                                 15          192.745846       93.9388442       103.372923                                              
                                 16          193.048103       94.0899724       103.524051                                              
                                 17          193.350359       94.2411006       103.675179                                              
                                 18          193.652615       94.3922288       103.826308                                              
                                 19          193.954872       94.5433570       103.977436                                              
                                 20          194.257128       94.6944853       104.128564                                              
                                 21          194.559385       94.8456135       104.279692                                              
                                 22          194.861641       94.9967417       104.430821                                              
                                 23          195.163897       95.1478699       104.581949                                              
                                 24          195.466154       95.2989981       104.733077                                              
                                 25          195.768410       95.4501263       104.884205                                              
                                 26          196.070667       95.6012545       105.035333                                              
                                 27          196.372923       95.7523827       105.186462                                              
                                 28          196.675179       95.9035109       105.337590                                              
                                 29          196.977436       96.0546391       105.488718                                              
                                 30          197.279692       96.2057673       105.639846                                              
                                 31          197.581949       96.3568955       105.790974                                              
                                 32          197.884205       96.5080237       105.942103                                              
                                 33          198.186462       96.6591519       106.093231                                              
                                 34          198.488718       96.8102801       106.244359                                              
                                 35          198.790974       96.9614083       106.395487                                              
                                 36          199.093231       97.1125365       106.546615                                              
                                 37          199.395487       97.2636647       106.697744                                              
                                 38          199.697744       97.4147929       106.848872                                              
                                 39          200.000000       97.5659211       107.000000                                              
 392             (1,10,10)       1           188.514256       91.4041076       101.257128      01_10_10                                
                                 2           188.816513       91.5552358       101.408256                                              
                                 3           189.118769       91.7063640       101.559385                                              
                                 4           189.421026       91.8574922       101.710513                                              
                                 5           189.723282       92.0086204       101.861641                                              
                                 6           190.025538       92.1597486       102.012769                                              
                                 7           190.327795       92.3108768       102.163897                                              
                                 8           190.630051       92.4620050       102.315026                                              
                                 9           190.932308       92.6131332       102.466154                                              
                                 10          191.234564       92.7642614       102.617282                                              
                                 11          191.536821       92.9153896       102.768410                                              
                                 12          191.839077       93.0665178       102.919538                                              
                                 13          192.141333       93.2176460       103.070667                                              
                                 14          192.443590       93.3687742       103.221795                                              
                                 15          192.745846       93.5199024       103.372923                                              
                                 16          193.048103       93.6710306       103.524051                                              
                                 17          193.350359       93.8221589       103.675179                                              
                                 18          193.652615       93.9732871       103.826308                                              
                                 19          193.954872       94.1244153       103.977436                                              
                                 20          194.257128       94.2755435       104.128564                                              
                                 21          194.559385       94.4266717       104.279692                                              
                                 22          194.861641       94.5777999       104.430821                                              
                                 23          195.163897       94.7289281       104.581949                                              
                                 24          195.466154       94.8800563       104.733077                                              
                                 25          195.768410       95.0311845       104.884205                                              
                                 26          196.070667       95.1823127       105.035333                                              
                                 27          196.372923       95.3334409       105.186462                                              
                                 28          196.675179       95.4845691       105.337590                                              
                                 29          196.977436       95.6356973       105.488718                                              
                                 30          197.279692       95.7868255       105.639846                                              
                                 31          197.581949       95.9379537       105.790974                                              
                                 32          197.884205       96.0890819       105.942103                                              
                                 33          198.186462       96.2402101       106.093231                                              
                                 34          198.488718       96.3913383       106.244359                                              
                                 35          198.790974       96.5424665       106.395487                                              
                                 36          199.093231       96.6935947       106.546615                                              
                                 37          199.395487       96.8447230       106.697744                                              
                                 38          199.697744       96.9958512       106.848872                                              
                                 39          200.000000       97.1469794       107.000000                                              
 393              (3,1,1)        1           690.100513       332.005047       352.050256      03_01_01                                
                                 2           690.361026       332.135304       352.180513                                              
                                 3           690.621538       332.265560       352.310769                                              
                                 4           690.882051       332.395817       352.441026                                              
                                 5           691.142564       332.526073       352.571282                                              
                                 6           691.403077       332.656329       352.701538                                              
                                 7           691.663590       332.786586       352.831795                                              
                                 8           691.924103       332.916842       352.962051                                              
                                 9           692.184615       333.047099       353.092308                                              
                                 10          692.445128       333.177355       353.222564                                              
                                 11          692.705641       333.307611       353.352821                                              
                                 12          692.966154       333.437868       353.483077                                              
                                 13          693.226667       333.568124       353.613333                                              
                                 14          693.487179       333.698381       353.743590                                              
                                 15          693.747692       333.828637       353.873846                                              
                                 16          694.008205       333.958894       354.004103                                              
                                 17          694.268718       334.089150       354.134359                                              
                                 18          694.529231       334.219406       354.264615                                              
                                 19          694.789744       334.349663       354.394872                                              
                                 20          695.050256       334.479919       354.525128                                              
                                 21          695.310769       334.610176       354.655385                                              
                                 22          695.571282       334.740432       354.785641                                              
                                 23          695.831795       334.870688       354.915897                                              
                                 24          696.092308       335.000945       355.046154                                              
                                 25          696.352821       335.131201       355.176410                                              
                                 26          696.613333       335.261458       355.306667                                              
                                 27          696.873846       335.391714       355.436923                                              
                                 28          697.134359       335.521970       355.567179                                              
                                 29          697.394872       335.652227       355.697436                                              
                                 30          697.655385       335.782483       355.827692                                              
                                 31          697.915897       335.912740       355.957949                                              
                                 32          698.176410       336.042996       356.088205                                              
                                 33          698.436923       336.173253       356.218462                                              
                                 34          698.697436       336.303509       356.348718                                              
                                 35          698.957949       336.433765       356.478974                                              
                                 36          699.218462       336.564022       356.609231                                              
                                 37          699.478974       336.694278       356.739487                                              
                                 38          699.739487       336.824535       356.869744                                              
                                 39          700.000000       336.954791       357.000000                                              
 394              (3,1,2)        1           690.100513       332.003928       352.050256      03_01_02                                
                                 2           690.361026       332.134184       352.180513                                              
                                 3           690.621538       332.264441       352.310769                                              
                                 4           690.882051       332.394697       352.441026                                              
                                 5           691.142564       332.524954       352.571282                                              
                                 6           691.403077       332.655210       352.701538                                              
                                 7           691.663590       332.785467       352.831795                                              
                                 8           691.924103       332.915723       352.962051                                              
                                 9           692.184615       333.045979       353.092308                                              
                                 10          692.445128       333.176236       353.222564                                              
                                 11          692.705641       333.306492       353.352821                                              
                                 12          692.966154       333.436749       353.483077                                              
                                 13          693.226667       333.567005       353.613333                                              
                                 14          693.487179       333.697261       353.743590                                              
                                 15          693.747692       333.827518       353.873846                                              
                                 16          694.008205       333.957774       354.004103                                              
                                 17          694.268718       334.088031       354.134359                                              
                                 18          694.529231       334.218287       354.264615                                              
                                 19          694.789744       334.348543       354.394872                                              
                                 20          695.050256       334.478800       354.525128                                              
                                 21          695.310769       334.609056       354.655385                                              
                                 22          695.571282       334.739313       354.785641                                              
                                 23          695.831795       334.869569       354.915897                                              
                                 24          696.092308       334.999826       355.046154                                              
                                 25          696.352821       335.130082       355.176410                                              
                                 26          696.613333       335.260338       355.306667                                              
                                 27          696.873846       335.390595       355.436923                                              
                                 28          697.134359       335.520851       355.567179                                              
                                 29          697.394872       335.651108       355.697436                                              
                                 30          697.655385       335.781364       355.827692                                              
                                 31          697.915897       335.911620       355.957949                                              
                                 32          698.176410       336.041877       356.088205                                              
                                 33          698.436923       336.172133       356.218462                                              
                                 34          698.697436       336.302390       356.348718                                              
                                 35          698.957949       336.432646       356.478974                                              
                                 36          699.218462       336.562902       356.609231                                              
                                 37          699.478974       336.693159       356.739487                                              
                                 38          699.739487       336.823415       356.869744                                              
                                 39          700.000000       336.953672       357.000000                                              
 395              (3,1,3)        1           690.100513       332.002712       352.050256      03_01_03                                
                                 2           690.361026       332.132968       352.180513                                              
                                 3           690.621538       332.263225       352.310769                                              
                                 4           690.882051       332.393481       352.441026                                              
                                 5           691.142564       332.523737       352.571282                                              
                                 6           691.403077       332.653994       352.701538                                              
                                 7           691.663590       332.784250       352.831795                                              
                                 8           691.924103       332.914507       352.962051                                              
                                 9           692.184615       333.044763       353.092308                                              
                                 10          692.445128       333.175019       353.222564                                              
                                 11          692.705641       333.305276       353.352821                                              
                                 12          692.966154       333.435532       353.483077                                              
                                 13          693.226667       333.565789       353.613333                                              
                                 14          693.487179       333.696045       353.743590                                              
                                 15          693.747692       333.826302       353.873846                                              
                                 16          694.008205       333.956558       354.004103                                              
                                 17          694.268718       334.086814       354.134359                                              
                                 18          694.529231       334.217071       354.264615                                              
                                 19          694.789744       334.347327       354.394872                                              
                                 20          695.050256       334.477584       354.525128                                              
                                 21          695.310769       334.607840       354.655385                                              
                                 22          695.571282       334.738096       354.785641                                              
                                 23          695.831795       334.868353       354.915897                                              
                                 24          696.092308       334.998609       355.046154                                              
                                 25          696.352821       335.128866       355.176410                                              
                                 26          696.613333       335.259122       355.306667                                              
                                 27          696.873846       335.389378       355.436923                                              
                                 28          697.134359       335.519635       355.567179                                              
                                 29          697.394872       335.649891       355.697436                                              
                                 30          697.655385       335.780148       355.827692                                              
                                 31          697.915897       335.910404       355.957949                                              
                                 32          698.176410       336.040661       356.088205                                              
                                 33          698.436923       336.170917       356.218462                                              
                                 34          698.697436       336.301173       356.348718                                              
                                 35          698.957949       336.431430       356.478974                                              
                                 36          699.218462       336.561686       356.609231                                              
                                 37          699.478974       336.691943       356.739487                                              
                                 38          699.739487       336.822199       356.869744                                              
                                 39          700.000000       336.952455       357.000000                                              
 396              (3,1,4)        1           690.100513       332.001913       352.050256      03_01_04                                
                                 2           690.361026       332.132169       352.180513                                              
                                 3           690.621538       332.262425       352.310769                                              
                                 4           690.882051       332.392682       352.441026                                              
                                 5           691.142564       332.522938       352.571282                                              
                                 6           691.403077       332.653195       352.701538                                              
                                 7           691.663590       332.783451       352.831795                                              
                                 8           691.924103       332.913707       352.962051                                              
                                 9           692.184615       333.043964       353.092308                                              
                                 10          692.445128       333.174220       353.222564                                              
                                 11          692.705641       333.304477       353.352821                                              
                                 12          692.966154       333.434733       353.483077                                              
                                 13          693.226667       333.564989       353.613333                                              
                                 14          693.487179       333.695246       353.743590                                              
                                 15          693.747692       333.825502       353.873846                                              
                                 16          694.008205       333.955759       354.004103                                              
                                 17          694.268718       334.086015       354.134359                                              
                                 18          694.529231       334.216271       354.264615                                              
                                 19          694.789744       334.346528       354.394872                                              
                                 20          695.050256       334.476784       354.525128                                              
                                 21          695.310769       334.607041       354.655385                                              
                                 22          695.571282       334.737297       354.785641                                              
                                 23          695.831795       334.867554       354.915897                                              
                                 24          696.092308       334.997810       355.046154                                              
                                 25          696.352821       335.128066       355.176410                                              
                                 26          696.613333       335.258323       355.306667                                              
                                 27          696.873846       335.388579       355.436923                                              
                                 28          697.134359       335.518836       355.567179                                              
                                 29          697.394872       335.649092       355.697436                                              
                                 30          697.655385       335.779348       355.827692                                              
                                 31          697.915897       335.909605       355.957949                                              
                                 32          698.176410       336.039861       356.088205                                              
                                 33          698.436923       336.170118       356.218462                                              
                                 34          698.697436       336.300374       356.348718                                              
                                 35          698.957949       336.430630       356.478974                                              
                                 36          699.218462       336.560887       356.609231                                              
                                 37          699.478974       336.691143       356.739487                                              
                                 38          699.739487       336.821400       356.869744                                              
                                 39          700.000000       336.951656       357.000000                                              
 397              (3,1,5)        1           690.100513       332.001701       352.050256      03_01_05                                
                                 2           690.361026       332.131957       352.180513                                              
                                 3           690.621538       332.262214       352.310769                                              
                                 4           690.882051       332.392470       352.441026                                              
                                 5           691.142564       332.522727       352.571282                                              
                                 6           691.403077       332.652983       352.701538                                              
                                 7           691.663590       332.783239       352.831795                                              
                                 8           691.924103       332.913496       352.962051                                              
                                 9           692.184615       333.043752       353.092308                                              
                                 10          692.445128       333.174009       353.222564                                              
                                 11          692.705641       333.304265       353.352821                                              
                                 12          692.966154       333.434521       353.483077                                              
                                 13          693.226667       333.564778       353.613333                                              
                                 14          693.487179       333.695034       353.743590                                              
                                 15          693.747692       333.825291       353.873846                                              
                                 16          694.008205       333.955547       354.004103                                              
                                 17          694.268718       334.085804       354.134359                                              
                                 18          694.529231       334.216060       354.264615                                              
                                 19          694.789744       334.346316       354.394872                                              
                                 20          695.050256       334.476573       354.525128                                              
                                 21          695.310769       334.606829       354.655385                                              
                                 22          695.571282       334.737086       354.785641                                              
                                 23          695.831795       334.867342       354.915897                                              
                                 24          696.092308       334.997598       355.046154                                              
                                 25          696.352821       335.127855       355.176410                                              
                                 26          696.613333       335.258111       355.306667                                              
                                 27          696.873846       335.388368       355.436923                                              
                                 28          697.134359       335.518624       355.567179                                              
                                 29          697.394872       335.648880       355.697436                                              
                                 30          697.655385       335.779137       355.827692                                              
                                 31          697.915897       335.909393       355.957949                                              
                                 32          698.176410       336.039650       356.088205                                              
                                 33          698.436923       336.169906       356.218462                                              
                                 34          698.697436       336.300163       356.348718                                              
                                 35          698.957949       336.430419       356.478974                                              
                                 36          699.218462       336.560675       356.609231                                              
                                 37          699.478974       336.690932       356.739487                                              
                                 38          699.739487       336.821188       356.869744                                              
                                 39          700.000000       336.951445       357.000000                                              
 398              (3,1,6)        1           690.100513       332.002098       352.050256      03_01_06                                
                                 2           690.361026       332.132354       352.180513                                              
                                 3           690.621538       332.262610       352.310769                                              
                                 4           690.882051       332.392867       352.441026                                              
                                 5           691.142564       332.523123       352.571282                                              
                                 6           691.403077       332.653380       352.701538                                              
                                 7           691.663590       332.783636       352.831795                                              
                                 8           691.924103       332.913892       352.962051                                              
                                 9           692.184615       333.044149       353.092308                                              
                                 10          692.445128       333.174405       353.222564                                              
                                 11          692.705641       333.304662       353.352821                                              
                                 12          692.966154       333.434918       353.483077                                              
                                 13          693.226667       333.565175       353.613333                                              
                                 14          693.487179       333.695431       353.743590                                              
                                 15          693.747692       333.825687       353.873846                                              
                                 16          694.008205       333.955944       354.004103                                              
                                 17          694.268718       334.086200       354.134359                                              
                                 18          694.529231       334.216457       354.264615                                              
                                 19          694.789744       334.346713       354.394872                                              
                                 20          695.050256       334.476969       354.525128                                              
                                 21          695.310769       334.607226       354.655385                                              
                                 22          695.571282       334.737482       354.785641                                              
                                 23          695.831795       334.867739       354.915897                                              
                                 24          696.092308       334.997995       355.046154                                              
                                 25          696.352821       335.128251       355.176410                                              
                                 26          696.613333       335.258508       355.306667                                              
                                 27          696.873846       335.388764       355.436923                                              
                                 28          697.134359       335.519021       355.567179                                              
                                 29          697.394872       335.649277       355.697436                                              
                                 30          697.655385       335.779534       355.827692                                              
                                 31          697.915897       335.909790       355.957949                                              
                                 32          698.176410       336.040046       356.088205                                              
                                 33          698.436923       336.170303       356.218462                                              
                                 34          698.697436       336.300559       356.348718                                              
                                 35          698.957949       336.430816       356.478974                                              
                                 36          699.218462       336.561072       356.609231                                              
                                 37          699.478974       336.691328       356.739487                                              
                                 38          699.739487       336.821585       356.869744                                              
                                 39          700.000000       336.951841       357.000000                                              
 399              (3,1,7)        1           690.100513       332.003060       352.050256      03_01_07                                
                                 2           690.361026       332.133316       352.180513                                              
                                 3           690.621538       332.263572       352.310769                                              
                                 4           690.882051       332.393829       352.441026                                              
                                 5           691.142564       332.524085       352.571282                                              
                                 6           691.403077       332.654342       352.701538                                              
                                 7           691.663590       332.784598       352.831795                                              
                                 8           691.924103       332.914854       352.962051                                              
                                 9           692.184615       333.045111       353.092308                                              
                                 10          692.445128       333.175367       353.222564                                              
                                 11          692.705641       333.305624       353.352821                                              
                                 12          692.966154       333.435880       353.483077                                              
                                 13          693.226667       333.566136       353.613333                                              
                                 14          693.487179       333.696393       353.743590                                              
                                 15          693.747692       333.826649       353.873846                                              
                                 16          694.008205       333.956906       354.004103                                              
                                 17          694.268718       334.087162       354.134359                                              
                                 18          694.529231       334.217419       354.264615                                              
                                 19          694.789744       334.347675       354.394872                                              
                                 20          695.050256       334.477931       354.525128                                              
                                 21          695.310769       334.608188       354.655385                                              
                                 22          695.571282       334.738444       354.785641                                              
                                 23          695.831795       334.868701       354.915897                                              
                                 24          696.092308       334.998957       355.046154                                              
                                 25          696.352821       335.129213       355.176410                                              
                                 26          696.613333       335.259470       355.306667                                              
                                 27          696.873846       335.389726       355.436923                                              
                                 28          697.134359       335.519983       355.567179                                              
                                 29          697.394872       335.650239       355.697436                                              
                                 30          697.655385       335.780495       355.827692                                              
                                 31          697.915897       335.910752       355.957949                                              
                                 32          698.176410       336.041008       356.088205                                              
                                 33          698.436923       336.171265       356.218462                                              
                                 34          698.697436       336.301521       356.348718                                              
                                 35          698.957949       336.431777       356.478974                                              
                                 36          699.218462       336.562034       356.609231                                              
                                 37          699.478974       336.692290       356.739487                                              
                                 38          699.739487       336.822547       356.869744                                              
                                 39          700.000000       336.952803       357.000000                                              
 400              (3,1,8)        1           690.100513       332.004486       352.050256      03_01_08                                
                                 2           690.361026       332.134742       352.180513                                              
                                 3           690.621538       332.264998       352.310769                                              
                                 4           690.882051       332.395255       352.441026                                              
                                 5           691.142564       332.525511       352.571282                                              
                                 6           691.403077       332.655768       352.701538                                              
                                 7           691.663590       332.786024       352.831795                                              
                                 8           691.924103       332.916281       352.962051                                              
                                 9           692.184615       333.046537       353.092308                                              
                                 10          692.445128       333.176793       353.222564                                              
                                 11          692.705641       333.307050       353.352821                                              
                                 12          692.966154       333.437306       353.483077                                              
                                 13          693.226667       333.567563       353.613333                                              
                                 14          693.487179       333.697819       353.743590                                              
                                 15          693.747692       333.828075       353.873846                                              
                                 16          694.008205       333.958332       354.004103                                              
                                 17          694.268718       334.088588       354.134359                                              
                                 18          694.529231       334.218845       354.264615                                              
                                 19          694.789744       334.349101       354.394872                                              
                                 20          695.050256       334.479357       354.525128                                              
                                 21          695.310769       334.609614       354.655385                                              
                                 22          695.571282       334.739870       354.785641                                              
                                 23          695.831795       334.870127       354.915897                                              
                                 24          696.092308       335.000383       355.046154                                              
                                 25          696.352821       335.130640       355.176410                                              
                                 26          696.613333       335.260896       355.306667                                              
                                 27          696.873846       335.391152       355.436923                                              
                                 28          697.134359       335.521409       355.567179                                              
                                 29          697.394872       335.651665       355.697436                                              
                                 30          697.655385       335.781922       355.827692                                              
                                 31          697.915897       335.912178       355.957949                                              
                                 32          698.176410       336.042434       356.088205                                              
                                 33          698.436923       336.172691       356.218462                                              
                                 34          698.697436       336.302947       356.348718                                              
                                 35          698.957949       336.433204       356.478974                                              
                                 36          699.218462       336.563460       356.609231                                              
                                 37          699.478974       336.693716       356.739487                                              
                                 38          699.739487       336.823973       356.869744                                              
                                 39          700.000000       336.954229       357.000000                                              
 401              (3,1,9)        1           690.100513       332.006142       352.050256      03_01_09                                
                                 2           690.361026       332.136398       352.180513                                              
                                 3           690.621538       332.266654       352.310769                                              
                                 4           690.882051       332.396911       352.441026                                              
                                 5           691.142564       332.527167       352.571282                                              
                                 6           691.403077       332.657424       352.701538                                              
                                 7           691.663590       332.787680       352.831795                                              
                                 8           691.924103       332.917936       352.962051                                              
                                 9           692.184615       333.048193       353.092308                                              
                                 10          692.445128       333.178449       353.222564                                              
                                 11          692.705641       333.308706       353.352821                                              
                                 12          692.966154       333.438962       353.483077                                              
                                 13          693.226667       333.569218       353.613333                                              
                                 14          693.487179       333.699475       353.743590                                              
                                 15          693.747692       333.829731       353.873846                                              
                                 16          694.008205       333.959988       354.004103                                              
                                 17          694.268718       334.090244       354.134359                                              
                                 18          694.529231       334.220500       354.264615                                              
                                 19          694.789744       334.350757       354.394872                                              
                                 20          695.050256       334.481013       354.525128                                              
                                 21          695.310769       334.611270       354.655385                                              
                                 22          695.571282       334.741526       354.785641                                              
                                 23          695.831795       334.871783       354.915897                                              
                                 24          696.092308       335.002039       355.046154                                              
                                 25          696.352821       335.132295       355.176410                                              
                                 26          696.613333       335.262552       355.306667                                              
                                 27          696.873846       335.392808       355.436923                                              
                                 28          697.134359       335.523065       355.567179                                              
                                 29          697.394872       335.653321       355.697436                                              
                                 30          697.655385       335.783577       355.827692                                              
                                 31          697.915897       335.913834       355.957949                                              
                                 32          698.176410       336.044090       356.088205                                              
                                 33          698.436923       336.174347       356.218462                                              
                                 34          698.697436       336.304603       356.348718                                              
                                 35          698.957949       336.434859       356.478974                                              
                                 36          699.218462       336.565116       356.609231                                              
                                 37          699.478974       336.695372       356.739487                                              
                                 38          699.739487       336.825629       356.869744                                              
                                 39          700.000000       336.955885       357.000000                                              
 402              (3,1,10)       1           690.100513       332.007479       352.050256      03_01_10                                
                                 2           690.361026       332.137735       352.180513                                              
                                 3           690.621538       332.267992       352.310769                                              
                                 4           690.882051       332.398248       352.441026                                              
                                 5           691.142564       332.528505       352.571282                                              
                                 6           691.403077       332.658761       352.701538                                              
                                 7           691.663590       332.789018       352.831795                                              
                                 8           691.924103       332.919274       352.962051                                              
                                 9           692.184615       333.049530       353.092308                                              
                                 10          692.445128       333.179787       353.222564                                              
                                 11          692.705641       333.310043       353.352821                                              
                                 12          692.966154       333.440300       353.483077                                              
                                 13          693.226667       333.570556       353.613333                                              
                                 14          693.487179       333.700812       353.743590                                              
                                 15          693.747692       333.831069       353.873846                                              
                                 16          694.008205       333.961325       354.004103                                              
                                 17          694.268718       334.091582       354.134359                                              
                                 18          694.529231       334.221838       354.264615                                              
                                 19          694.789744       334.352094       354.394872                                              
                                 20          695.050256       334.482351       354.525128                                              
                                 21          695.310769       334.612607       354.655385                                              
                                 22          695.571282       334.742864       354.785641                                              
                                 23          695.831795       334.873120       354.915897                                              
                                 24          696.092308       335.003376       355.046154                                              
                                 25          696.352821       335.133633       355.176410                                              
                                 26          696.613333       335.263889       355.306667                                              
                                 27          696.873846       335.394146       355.436923                                              
                                 28          697.134359       335.524402       355.567179                                              
                                 29          697.394872       335.654659       355.697436                                              
                                 30          697.655385       335.784915       355.827692                                              
                                 31          697.915897       335.915171       355.957949                                              
                                 32          698.176410       336.045428       356.088205                                              
                                 33          698.436923       336.175684       356.218462                                              
                                 34          698.697436       336.305941       356.348718                                              
                                 35          698.957949       336.436197       356.478974                                              
                                 36          699.218462       336.566453       356.609231                                              
                                 37          699.478974       336.696710       356.739487                                              
                                 38          699.739487       336.826966       356.869744                                              
                                 39          700.000000       336.957223       357.000000                                              
 403              (3,2,1)        1           690.100513       332.030041       352.050256      03_02_01                                
                                 2           690.361026       332.160298       352.180513                                              
                                 3           690.621538       332.290554       352.310769                                              
                                 4           690.882051       332.420810       352.441026                                              
                                 5           691.142564       332.551067       352.571282                                              
                                 6           691.403077       332.681323       352.701538                                              
                                 7           691.663590       332.811580       352.831795                                              
                                 8           691.924103       332.941836       352.962051                                              
                                 9           692.184615       333.072092       353.092308                                              
                                 10          692.445128       333.202349       353.222564                                              
                                 11          692.705641       333.332605       353.352821                                              
                                 12          692.966154       333.462862       353.483077                                              
                                 13          693.226667       333.593118       353.613333                                              
                                 14          693.487179       333.723375       353.743590                                              
                                 15          693.747692       333.853631       353.873846                                              
                                 16          694.008205       333.983887       354.004103                                              
                                 17          694.268718       334.114144       354.134359                                              
                                 18          694.529231       334.244400       354.264615                                              
                                 19          694.789744       334.374657       354.394872                                              
                                 20          695.050256       334.504913       354.525128                                              
                                 21          695.310769       334.635169       354.655385                                              
                                 22          695.571282       334.765426       354.785641                                              
                                 23          695.831795       334.895682       354.915897                                              
                                 24          696.092308       335.025939       355.046154                                              
                                 25          696.352821       335.156195       355.176410                                              
                                 26          696.613333       335.286451       355.306667                                              
                                 27          696.873846       335.416708       355.436923                                              
                                 28          697.134359       335.546964       355.567179                                              
                                 29          697.394872       335.677221       355.697436                                              
                                 30          697.655385       335.807477       355.827692                                              
                                 31          697.915897       335.937734       355.957949                                              
                                 32          698.176410       336.067990       356.088205                                              
                                 33          698.436923       336.198246       356.218462                                              
                                 34          698.697436       336.328503       356.348718                                              
                                 35          698.957949       336.458759       356.478974                                              
                                 36          699.218462       336.589016       356.609231                                              
                                 37          699.478974       336.719272       356.739487                                              
                                 38          699.739487       336.849528       356.869744                                              
                                 39          700.000000       336.979785       357.000000                                              
 404              (3,2,2)        1           690.100513       332.025566       352.050256      03_02_02                                
                                 2           690.361026       332.155822       352.180513                                              
                                 3           690.621538       332.286079       352.310769                                              
                                 4           690.882051       332.416335       352.441026                                              
                                 5           691.142564       332.546592       352.571282                                              
                                 6           691.403077       332.676848       352.701538                                              
                                 7           691.663590       332.807104       352.831795                                              
                                 8           691.924103       332.937361       352.962051                                              
                                 9           692.184615       333.067617       353.092308                                              
                                 10          692.445128       333.197874       353.222564                                              
                                 11          692.705641       333.328130       353.352821                                              
                                 12          692.966154       333.458387       353.483077                                              
                                 13          693.226667       333.588643       353.613333                                              
                                 14          693.487179       333.718899       353.743590                                              
                                 15          693.747692       333.849156       353.873846                                              
                                 16          694.008205       333.979412       354.004103                                              
                                 17          694.268718       334.109669       354.134359                                              
                                 18          694.529231       334.239925       354.264615                                              
                                 19          694.789744       334.370181       354.394872                                              
                                 20          695.050256       334.500438       354.525128                                              
                                 21          695.310769       334.630694       354.655385                                              
                                 22          695.571282       334.760951       354.785641                                              
                                 23          695.831795       334.891207       354.915897                                              
                                 24          696.092308       335.021463       355.046154                                              
                                 25          696.352821       335.151720       355.176410                                              
                                 26          696.613333       335.281976       355.306667                                              
                                 27          696.873846       335.412233       355.436923                                              
                                 28          697.134359       335.542489       355.567179                                              
                                 29          697.394872       335.672746       355.697436                                              
                                 30          697.655385       335.803002       355.827692                                              
                                 31          697.915897       335.933258       355.957949                                              
                                 32          698.176410       336.063515       356.088205                                              
                                 33          698.436923       336.193771       356.218462                                              
                                 34          698.697436       336.324028       356.348718                                              
                                 35          698.957949       336.454284       356.478974                                              
                                 36          699.218462       336.584540       356.609231                                              
                                 37          699.478974       336.714797       356.739487                                              
                                 38          699.739487       336.845053       356.869744                                              
                                 39          700.000000       336.975310       357.000000                                              
 405              (3,2,3)        1           690.100513       332.022792       352.050256      03_02_03                                
                                 2           690.361026       332.153049       352.180513                                              
                                 3           690.621538       332.283305       352.310769                                              
                                 4           690.882051       332.413562       352.441026                                              
                                 5           691.142564       332.543818       352.571282                                              
                                 6           691.403077       332.674075       352.701538                                              
                                 7           691.663590       332.804331       352.831795                                              
                                 8           691.924103       332.934587       352.962051                                              
                                 9           692.184615       333.064844       353.092308                                              
                                 10          692.445128       333.195100       353.222564                                              
                                 11          692.705641       333.325357       353.352821                                              
                                 12          692.966154       333.455613       353.483077                                              
                                 13          693.226667       333.585869       353.613333                                              
                                 14          693.487179       333.716126       353.743590                                              
                                 15          693.747692       333.846382       353.873846                                              
                                 16          694.008205       333.976639       354.004103                                              
                                 17          694.268718       334.106895       354.134359                                              
                                 18          694.529231       334.237151       354.264615                                              
                                 19          694.789744       334.367408       354.394872                                              
                                 20          695.050256       334.497664       354.525128                                              
                                 21          695.310769       334.627921       354.655385                                              
                                 22          695.571282       334.758177       354.785641                                              
                                 23          695.831795       334.888433       354.915897                                              
                                 24          696.092308       335.018690       355.046154                                              
                                 25          696.352821       335.148946       355.176410                                              
                                 26          696.613333       335.279203       355.306667                                              
                                 27          696.873846       335.409459       355.436923                                              
                                 28          697.134359       335.539716       355.567179                                              
                                 29          697.394872       335.669972       355.697436                                              
                                 30          697.655385       335.800228       355.827692                                              
                                 31          697.915897       335.930485       355.957949                                              
                                 32          698.176410       336.060741       356.088205                                              
                                 33          698.436923       336.190998       356.218462                                              
                                 34          698.697436       336.321254       356.348718                                              
                                 35          698.957949       336.451510       356.478974                                              
                                 36          699.218462       336.581767       356.609231                                              
                                 37          699.478974       336.712023       356.739487                                              
                                 38          699.739487       336.842280       356.869744                                              
                                 39          700.000000       336.972536       357.000000                                              
 406              (3,2,4)        1           690.100513       332.021612       352.050256      03_02_04                                
                                 2           690.361026       332.151869       352.180513                                              
                                 3           690.621538       332.282125       352.310769                                              
                                 4           690.882051       332.412381       352.441026                                              
                                 5           691.142564       332.542638       352.571282                                              
                                 6           691.403077       332.672894       352.701538                                              
                                 7           691.663590       332.803151       352.831795                                              
                                 8           691.924103       332.933407       352.962051                                              
                                 9           692.184615       333.063664       353.092308                                              
                                 10          692.445128       333.193920       353.222564                                              
                                 11          692.705641       333.324176       353.352821                                              
                                 12          692.966154       333.454433       353.483077                                              
                                 13          693.226667       333.584689       353.613333                                              
                                 14          693.487179       333.714946       353.743590                                              
                                 15          693.747692       333.845202       353.873846                                              
                                 16          694.008205       333.975458       354.004103                                              
                                 17          694.268718       334.105715       354.134359                                              
                                 18          694.529231       334.235971       354.264615                                              
                                 19          694.789744       334.366228       354.394872                                              
                                 20          695.050256       334.496484       354.525128                                              
                                 21          695.310769       334.626740       354.655385                                              
                                 22          695.571282       334.756997       354.785641                                              
                                 23          695.831795       334.887253       354.915897                                              
                                 24          696.092308       335.017510       355.046154                                              
                                 25          696.352821       335.147766       355.176410                                              
                                 26          696.613333       335.278023       355.306667                                              
                                 27          696.873846       335.408279       355.436923                                              
                                 28          697.134359       335.538535       355.567179                                              
                                 29          697.394872       335.668792       355.697436                                              
                                 30          697.655385       335.799048       355.827692                                              
                                 31          697.915897       335.929305       355.957949                                              
                                 32          698.176410       336.059561       356.088205                                              
                                 33          698.436923       336.189817       356.218462                                              
                                 34          698.697436       336.320074       356.348718                                              
                                 35          698.957949       336.450330       356.478974                                              
                                 36          699.218462       336.580587       356.609231                                              
                                 37          699.478974       336.710843       356.739487                                              
                                 38          699.739487       336.841099       356.869744                                              
                                 39          700.000000       336.971356       357.000000                                              
 407              (3,2,5)        1           690.100513       332.021448       352.050256      03_02_05                                
                                 2           690.361026       332.151704       352.180513                                              
                                 3           690.621538       332.281961       352.310769                                              
                                 4           690.882051       332.412217       352.441026                                              
                                 5           691.142564       332.542473       352.571282                                              
                                 6           691.403077       332.672730       352.701538                                              
                                 7           691.663590       332.802986       352.831795                                              
                                 8           691.924103       332.933243       352.962051                                              
                                 9           692.184615       333.063499       353.092308                                              
                                 10          692.445128       333.193755       353.222564                                              
                                 11          692.705641       333.324012       353.352821                                              
                                 12          692.966154       333.454268       353.483077                                              
                                 13          693.226667       333.584525       353.613333                                              
                                 14          693.487179       333.714781       353.743590                                              
                                 15          693.747692       333.845037       353.873846                                              
                                 16          694.008205       333.975294       354.004103                                              
                                 17          694.268718       334.105550       354.134359                                              
                                 18          694.529231       334.235807       354.264615                                              
                                 19          694.789744       334.366063       354.394872                                              
                                 20          695.050256       334.496319       354.525128                                              
                                 21          695.310769       334.626576       354.655385                                              
                                 22          695.571282       334.756832       354.785641                                              
                                 23          695.831795       334.887089       354.915897                                              
                                 24          696.092308       335.017345       355.046154                                              
                                 25          696.352821       335.147602       355.176410                                              
                                 26          696.613333       335.277858       355.306667                                              
                                 27          696.873846       335.408114       355.436923                                              
                                 28          697.134359       335.538371       355.567179                                              
                                 29          697.394872       335.668627       355.697436                                              
                                 30          697.655385       335.798884       355.827692                                              
                                 31          697.915897       335.929140       355.957949                                              
                                 32          698.176410       336.059396       356.088205                                              
                                 33          698.436923       336.189653       356.218462                                              
                                 34          698.697436       336.319909       356.348718                                              
                                 35          698.957949       336.450166       356.478974                                              
                                 36          699.218462       336.580422       356.609231                                              
                                 37          699.478974       336.710678       356.739487                                              
                                 38          699.739487       336.840935       356.869744                                              
                                 39          700.000000       336.971191       357.000000                                              
 408              (3,2,6)        1           690.100513       332.021983       352.050256      03_02_06                                
                                 2           690.361026       332.152239       352.180513                                              
                                 3           690.621538       332.282496       352.310769                                              
                                 4           690.882051       332.412752       352.441026                                              
                                 5           691.142564       332.543008       352.571282                                              
                                 6           691.403077       332.673265       352.701538                                              
                                 7           691.663590       332.803521       352.831795                                              
                                 8           691.924103       332.933778       352.962051                                              
                                 9           692.184615       333.064034       353.092308                                              
                                 10          692.445128       333.194291       353.222564                                              
                                 11          692.705641       333.324547       353.352821                                              
                                 12          692.966154       333.454803       353.483077                                              
                                 13          693.226667       333.585060       353.613333                                              
                                 14          693.487179       333.715316       353.743590                                              
                                 15          693.747692       333.845573       353.873846                                              
                                 16          694.008205       333.975829       354.004103                                              
                                 17          694.268718       334.106085       354.134359                                              
                                 18          694.529231       334.236342       354.264615                                              
                                 19          694.789744       334.366598       354.394872                                              
                                 20          695.050256       334.496855       354.525128                                              
                                 21          695.310769       334.627111       354.655385                                              
                                 22          695.571282       334.757367       354.785641                                              
                                 23          695.831795       334.887624       354.915897                                              
                                 24          696.092308       335.017880       355.046154                                              
                                 25          696.352821       335.148137       355.176410                                              
                                 26          696.613333       335.278393       355.306667                                              
                                 27          696.873846       335.408650       355.436923                                              
                                 28          697.134359       335.538906       355.567179                                              
                                 29          697.394872       335.669162       355.697436                                              
                                 30          697.655385       335.799419       355.827692                                              
                                 31          697.915897       335.929675       355.957949                                              
                                 32          698.176410       336.059932       356.088205                                              
                                 33          698.436923       336.190188       356.218462                                              
                                 34          698.697436       336.320444       356.348718                                              
                                 35          698.957949       336.450701       356.478974                                              
                                 36          699.218462       336.580957       356.609231                                              
                                 37          699.478974       336.711214       356.739487                                              
                                 38          699.739487       336.841470       356.869744                                              
                                 39          700.000000       336.971726       357.000000                                              
 409              (3,2,7)        1           690.100513       332.023154       352.050256      03_02_07                                
                                 2           690.361026       332.153410       352.180513                                              
                                 3           690.621538       332.283667       352.310769                                              
                                 4           690.882051       332.413923       352.441026                                              
                                 5           691.142564       332.544180       352.571282                                              
                                 6           691.403077       332.674436       352.701538                                              
                                 7           691.663590       332.804692       352.831795                                              
                                 8           691.924103       332.934949       352.962051                                              
                                 9           692.184615       333.065205       353.092308                                              
                                 10          692.445128       333.195462       353.222564                                              
                                 11          692.705641       333.325718       353.352821                                              
                                 12          692.966154       333.455974       353.483077                                              
                                 13          693.226667       333.586231       353.613333                                              
                                 14          693.487179       333.716487       353.743590                                              
                                 15          693.747692       333.846744       353.873846                                              
                                 16          694.008205       333.977000       354.004103                                              
                                 17          694.268718       334.107257       354.134359                                              
                                 18          694.529231       334.237513       354.264615                                              
                                 19          694.789744       334.367769       354.394872                                              
                                 20          695.050256       334.498026       354.525128                                              
                                 21          695.310769       334.628282       354.655385                                              
                                 22          695.571282       334.758539       354.785641                                              
                                 23          695.831795       334.888795       354.915897                                              
                                 24          696.092308       335.019051       355.046154                                              
                                 25          696.352821       335.149308       355.176410                                              
                                 26          696.613333       335.279564       355.306667                                              
                                 27          696.873846       335.409821       355.436923                                              
                                 28          697.134359       335.540077       355.567179                                              
                                 29          697.394872       335.670333       355.697436                                              
                                 30          697.655385       335.800590       355.827692                                              
                                 31          697.915897       335.930846       355.957949                                              
                                 32          698.176410       336.061103       356.088205                                              
                                 33          698.436923       336.191359       356.218462                                              
                                 34          698.697436       336.321616       356.348718                                              
                                 35          698.957949       336.451872       356.478974                                              
                                 36          699.218462       336.582128       356.609231                                              
                                 37          699.478974       336.712385       356.739487                                              
                                 38          699.739487       336.842641       356.869744                                              
                                 39          700.000000       336.972898       357.000000                                              
 410              (3,2,8)        1           690.100513       332.025152       352.050256      03_02_08                                
                                 2           690.361026       332.155408       352.180513                                              
                                 3           690.621538       332.285665       352.310769                                              
                                 4           690.882051       332.415921       352.441026                                              
                                 5           691.142564       332.546177       352.571282                                              
                                 6           691.403077       332.676434       352.701538                                              
                                 7           691.663590       332.806690       352.831795                                              
                                 8           691.924103       332.936947       352.962051                                              
                                 9           692.184615       333.067203       353.092308                                              
                                 10          692.445128       333.197459       353.222564                                              
                                 11          692.705641       333.327716       353.352821                                              
                                 12          692.966154       333.457972       353.483077                                              
                                 13          693.226667       333.588229       353.613333                                              
                                 14          693.487179       333.718485       353.743590                                              
                                 15          693.747692       333.848741       353.873846                                              
                                 16          694.008205       333.978998       354.004103                                              
                                 17          694.268718       334.109254       354.134359                                              
                                 18          694.529231       334.239511       354.264615                                              
                                 19          694.789744       334.369767       354.394872                                              
                                 20          695.050256       334.500023       354.525128                                              
                                 21          695.310769       334.630280       354.655385                                              
                                 22          695.571282       334.760536       354.785641                                              
                                 23          695.831795       334.890793       354.915897                                              
                                 24          696.092308       335.021049       355.046154                                              
                                 25          696.352821       335.151306       355.176410                                              
                                 26          696.613333       335.281562       355.306667                                              
                                 27          696.873846       335.411818       355.436923                                              
                                 28          697.134359       335.542075       355.567179                                              
                                 29          697.394872       335.672331       355.697436                                              
                                 30          697.655385       335.802588       355.827692                                              
                                 31          697.915897       335.932844       355.957949                                              
                                 32          698.176410       336.063100       356.088205                                              
                                 33          698.436923       336.193357       356.218462                                              
                                 34          698.697436       336.323613       356.348718                                              
                                 35          698.957949       336.453870       356.478974                                              
                                 36          699.218462       336.584126       356.609231                                              
                                 37          699.478974       336.714382       356.739487                                              
                                 38          699.739487       336.844639       356.869744                                              
                                 39          700.000000       336.974895       357.000000                                              
 411              (3,2,9)        1           690.100513       332.028439       352.050256      03_02_09                                
                                 2           690.361026       332.158695       352.180513                                              
                                 3           690.621538       332.288951       352.310769                                              
                                 4           690.882051       332.419208       352.441026                                              
                                 5           691.142564       332.549464       352.571282                                              
                                 6           691.403077       332.679721       352.701538                                              
                                 7           691.663590       332.809977       352.831795                                              
                                 8           691.924103       332.940234       352.962051                                              
                                 9           692.184615       333.070490       353.092308                                              
                                 10          692.445128       333.200746       353.222564                                              
                                 11          692.705641       333.331003       353.352821                                              
                                 12          692.966154       333.461259       353.483077                                              
                                 13          693.226667       333.591516       353.613333                                              
                                 14          693.487179       333.721772       353.743590                                              
                                 15          693.747692       333.852028       353.873846                                              
                                 16          694.008205       333.982285       354.004103                                              
                                 17          694.268718       334.112541       354.134359                                              
                                 18          694.529231       334.242798       354.264615                                              
                                 19          694.789744       334.373054       354.394872                                              
                                 20          695.050256       334.503310       354.525128                                              
                                 21          695.310769       334.633567       354.655385                                              
                                 22          695.571282       334.763823       354.785641                                              
                                 23          695.831795       334.894080       354.915897                                              
                                 24          696.092308       335.024336       355.046154                                              
                                 25          696.352821       335.154592       355.176410                                              
                                 26          696.613333       335.284849       355.306667                                              
                                 27          696.873846       335.415105       355.436923                                              
                                 28          697.134359       335.545362       355.567179                                              
                                 29          697.394872       335.675618       355.697436                                              
                                 30          697.655385       335.805875       355.827692                                              
                                 31          697.915897       335.936131       355.957949                                              
                                 32          698.176410       336.066387       356.088205                                              
                                 33          698.436923       336.196644       356.218462                                              
                                 34          698.697436       336.326900       356.348718                                              
                                 35          698.957949       336.457157       356.478974                                              
                                 36          699.218462       336.587413       356.609231                                              
                                 37          699.478974       336.717669       356.739487                                              
                                 38          699.739487       336.847926       356.869744                                              
                                 39          700.000000       336.978182       357.000000                                              
 412              (3,2,10)       1           690.100513       332.033061       352.050256      03_02_10                                
                                 2           690.361026       332.163317       352.180513                                              
                                 3           690.621538       332.293574       352.310769                                              
                                 4           690.882051       332.423830       352.441026                                              
                                 5           691.142564       332.554086       352.571282                                              
                                 6           691.403077       332.684343       352.701538                                              
                                 7           691.663590       332.814599       352.831795                                              
                                 8           691.924103       332.944856       352.962051                                              
                                 9           692.184615       333.075112       353.092308                                              
                                 10          692.445128       333.205368       353.222564                                              
                                 11          692.705641       333.335625       353.352821                                              
                                 12          692.966154       333.465881       353.483077                                              
                                 13          693.226667       333.596138       353.613333                                              
                                 14          693.487179       333.726394       353.743590                                              
                                 15          693.747692       333.856650       353.873846                                              
                                 16          694.008205       333.986907       354.004103                                              
                                 17          694.268718       334.117163       354.134359                                              
                                 18          694.529231       334.247420       354.264615                                              
                                 19          694.789744       334.377676       354.394872                                              
                                 20          695.050256       334.507932       354.525128                                              
                                 21          695.310769       334.638189       354.655385                                              
                                 22          695.571282       334.768445       354.785641                                              
                                 23          695.831795       334.898702       354.915897                                              
                                 24          696.092308       335.028958       355.046154                                              
                                 25          696.352821       335.159215       355.176410                                              
                                 26          696.613333       335.289471       355.306667                                              
                                 27          696.873846       335.419727       355.436923                                              
                                 28          697.134359       335.549984       355.567179                                              
                                 29          697.394872       335.680240       355.697436                                              
                                 30          697.655385       335.810497       355.827692                                              
                                 31          697.915897       335.940753       355.957949                                              
                                 32          698.176410       336.071009       356.088205                                              
                                 33          698.436923       336.201266       356.218462                                              
                                 34          698.697436       336.331522       356.348718                                              
                                 35          698.957949       336.461779       356.478974                                              
                                 36          699.218462       336.592035       356.609231                                              
                                 37          699.478974       336.722291       356.739487                                              
                                 38          699.739487       336.852548       356.869744                                              
                                 39          700.000000       336.982804       357.000000                                              
 413              (3,3,1)        1           690.100513       332.089773       352.050256      03_03_01                                
                                 2           690.361026       332.220030       352.180513                                              
                                 3           690.621538       332.350286       352.310769                                              
                                 4           690.882051       332.480543       352.441026                                              
                                 5           691.142564       332.610799       352.571282                                              
                                 6           691.403077       332.741055       352.701538                                              
                                 7           691.663590       332.871312       352.831795                                              
                                 8           691.924103       333.001568       352.962051                                              
                                 9           692.184615       333.131825       353.092308                                              
                                 10          692.445128       333.262081       353.222564                                              
                                 11          692.705641       333.392337       353.352821                                              
                                 12          692.966154       333.522594       353.483077                                              
                                 13          693.226667       333.652850       353.613333                                              
                                 14          693.487179       333.783107       353.743590                                              
                                 15          693.747692       333.913363       353.873846                                              
                                 16          694.008205       334.043619       354.004103                                              
                                 17          694.268718       334.173876       354.134359                                              
                                 18          694.529231       334.304132       354.264615                                              
                                 19          694.789744       334.434389       354.394872                                              
                                 20          695.050256       334.564645       354.525128                                              
                                 21          695.310769       334.694901       354.655385                                              
                                 22          695.571282       334.825158       354.785641                                              
                                 23          695.831795       334.955414       354.915897                                              
                                 24          696.092308       335.085671       355.046154                                              
                                 25          696.352821       335.215927       355.176410                                              
                                 26          696.613333       335.346184       355.306667                                              
                                 27          696.873846       335.476440       355.436923                                              
                                 28          697.134359       335.606696       355.567179                                              
                                 29          697.394872       335.736953       355.697436                                              
                                 30          697.655385       335.867209       355.827692                                              
                                 31          697.915897       335.997466       355.957949                                              
                                 32          698.176410       336.127722       356.088205                                              
                                 33          698.436923       336.257978       356.218462                                              
                                 34          698.697436       336.388235       356.348718                                              
                                 35          698.957949       336.518491       356.478974                                              
                                 36          699.218462       336.648748       356.609231                                              
                                 37          699.478974       336.779004       356.739487                                              
                                 38          699.739487       336.909260       356.869744                                              
                                 39          700.000000       337.039517       357.000000                                              
 414              (3,3,2)        1           690.100513       332.085508       352.050256      03_03_02                                
                                 2           690.361026       332.215764       352.180513                                              
                                 3           690.621538       332.346021       352.310769                                              
                                 4           690.882051       332.476277       352.441026                                              
                                 5           691.142564       332.606534       352.571282                                              
                                 6           691.403077       332.736790       352.701538                                              
                                 7           691.663590       332.867046       352.831795                                              
                                 8           691.924103       332.997303       352.962051                                              
                                 9           692.184615       333.127559       353.092308                                              
                                 10          692.445128       333.257816       353.222564                                              
                                 11          692.705641       333.388072       353.352821                                              
                                 12          692.966154       333.518328       353.483077                                              
                                 13          693.226667       333.648585       353.613333                                              
                                 14          693.487179       333.778841       353.743590                                              
                                 15          693.747692       333.909098       353.873846                                              
                                 16          694.008205       334.039354       354.004103                                              
                                 17          694.268718       334.169611       354.134359                                              
                                 18          694.529231       334.299867       354.264615                                              
                                 19          694.789744       334.430123       354.394872                                              
                                 20          695.050256       334.560380       354.525128                                              
                                 21          695.310769       334.690636       354.655385                                              
                                 22          695.571282       334.820893       354.785641                                              
                                 23          695.831795       334.951149       354.915897                                              
                                 24          696.092308       335.081405       355.046154                                              
                                 25          696.352821       335.211662       355.176410                                              
                                 26          696.613333       335.341918       355.306667                                              
                                 27          696.873846       335.472175       355.436923                                              
                                 28          697.134359       335.602431       355.567179                                              
                                 29          697.394872       335.732687       355.697436                                              
                                 30          697.655385       335.862944       355.827692                                              
                                 31          697.915897       335.993200       355.957949                                              
                                 32          698.176410       336.123457       356.088205                                              
                                 33          698.436923       336.253713       356.218462                                              
                                 34          698.697436       336.383969       356.348718                                              
                                 35          698.957949       336.514226       356.478974                                              
                                 36          699.218462       336.644482       356.609231                                              
                                 37          699.478974       336.774739       356.739487                                              
                                 38          699.739487       336.904995       356.869744                                              
                                 39          700.000000       337.035252       357.000000                                              
 415              (3,3,3)        1           690.100513       332.082787       352.050256      03_03_03                                
                                 2           690.361026       332.213044       352.180513                                              
                                 3           690.621538       332.343300       352.310769                                              
                                 4           690.882051       332.473556       352.441026                                              
                                 5           691.142564       332.603813       352.571282                                              
                                 6           691.403077       332.734069       352.701538                                              
                                 7           691.663590       332.864326       352.831795                                              
                                 8           691.924103       332.994582       352.962051                                              
                                 9           692.184615       333.124838       353.092308                                              
                                 10          692.445128       333.255095       353.222564                                              
                                 11          692.705641       333.385351       353.352821                                              
                                 12          692.966154       333.515608       353.483077                                              
                                 13          693.226667       333.645864       353.613333                                              
                                 14          693.487179       333.776121       353.743590                                              
                                 15          693.747692       333.906377       353.873846                                              
                                 16          694.008205       334.036633       354.004103                                              
                                 17          694.268718       334.166890       354.134359                                              
                                 18          694.529231       334.297146       354.264615                                              
                                 19          694.789744       334.427403       354.394872                                              
                                 20          695.050256       334.557659       354.525128                                              
                                 21          695.310769       334.687915       354.655385                                              
                                 22          695.571282       334.818172       354.785641                                              
                                 23          695.831795       334.948428       354.915897                                              
                                 24          696.092308       335.078685       355.046154                                              
                                 25          696.352821       335.208941       355.176410                                              
                                 26          696.613333       335.339197       355.306667                                              
                                 27          696.873846       335.469454       355.436923                                              
                                 28          697.134359       335.599710       355.567179                                              
                                 29          697.394872       335.729967       355.697436                                              
                                 30          697.655385       335.860223       355.827692                                              
                                 31          697.915897       335.990480       355.957949                                              
                                 32          698.176410       336.120736       356.088205                                              
                                 33          698.436923       336.250992       356.218462                                              
                                 34          698.697436       336.381249       356.348718                                              
                                 35          698.957949       336.511505       356.478974                                              
                                 36          699.218462       336.641762       356.609231                                              
                                 37          699.478974       336.772018       356.739487                                              
                                 38          699.739487       336.902274       356.869744                                              
                                 39          700.000000       337.032531       357.000000                                              
 416              (3,3,4)        1           690.100513       332.081656       352.050256      03_03_04                                
                                 2           690.361026       332.211912       352.180513                                              
                                 3           690.621538       332.342168       352.310769                                              
                                 4           690.882051       332.472425       352.441026                                              
                                 5           691.142564       332.602681       352.571282                                              
                                 6           691.403077       332.732938       352.701538                                              
                                 7           691.663590       332.863194       352.831795                                              
                                 8           691.924103       332.993451       352.962051                                              
                                 9           692.184615       333.123707       353.092308                                              
                                 10          692.445128       333.253963       353.222564                                              
                                 11          692.705641       333.384220       353.352821                                              
                                 12          692.966154       333.514476       353.483077                                              
                                 13          693.226667       333.644733       353.613333                                              
                                 14          693.487179       333.774989       353.743590                                              
                                 15          693.747692       333.905245       353.873846                                              
                                 16          694.008205       334.035502       354.004103                                              
                                 17          694.268718       334.165758       354.134359                                              
                                 18          694.529231       334.296015       354.264615                                              
                                 19          694.789744       334.426271       354.394872                                              
                                 20          695.050256       334.556527       354.525128                                              
                                 21          695.310769       334.686784       354.655385                                              
                                 22          695.571282       334.817040       354.785641                                              
                                 23          695.831795       334.947297       354.915897                                              
                                 24          696.092308       335.077553       355.046154                                              
                                 25          696.352821       335.207809       355.176410                                              
                                 26          696.613333       335.338066       355.306667                                              
                                 27          696.873846       335.468322       355.436923                                              
                                 28          697.134359       335.598579       355.567179                                              
                                 29          697.394872       335.728835       355.697436                                              
                                 30          697.655385       335.859092       355.827692                                              
                                 31          697.915897       335.989348       355.957949                                              
                                 32          698.176410       336.119604       356.088205                                              
                                 33          698.436923       336.249861       356.218462                                              
                                 34          698.697436       336.380117       356.348718                                              
                                 35          698.957949       336.510374       356.478974                                              
                                 36          699.218462       336.640630       356.609231                                              
                                 37          699.478974       336.770886       356.739487                                              
                                 38          699.739487       336.901143       356.869744                                              
                                 39          700.000000       337.031399       357.000000                                              
 417              (3,3,5)        1           690.100513       332.081588       352.050256      03_03_05                                
                                 2           690.361026       332.211844       352.180513                                              
                                 3           690.621538       332.342101       352.310769                                              
                                 4           690.882051       332.472357       352.441026                                              
                                 5           691.142564       332.602614       352.571282                                              
                                 6           691.403077       332.732870       352.701538                                              
                                 7           691.663590       332.863126       352.831795                                              
                                 8           691.924103       332.993383       352.962051                                              
                                 9           692.184615       333.123639       353.092308                                              
                                 10          692.445128       333.253896       353.222564                                              
                                 11          692.705641       333.384152       353.352821                                              
                                 12          692.966154       333.514408       353.483077                                              
                                 13          693.226667       333.644665       353.613333                                              
                                 14          693.487179       333.774921       353.743590                                              
                                 15          693.747692       333.905178       353.873846                                              
                                 16          694.008205       334.035434       354.004103                                              
                                 17          694.268718       334.165690       354.134359                                              
                                 18          694.529231       334.295947       354.264615                                              
                                 19          694.789744       334.426203       354.394872                                              
                                 20          695.050256       334.556460       354.525128                                              
                                 21          695.310769       334.686716       354.655385                                              
                                 22          695.571282       334.816973       354.785641                                              
                                 23          695.831795       334.947229       354.915897                                              
                                 24          696.092308       335.077485       355.046154                                              
                                 25          696.352821       335.207742       355.176410                                              
                                 26          696.613333       335.337998       355.306667                                              
                                 27          696.873846       335.468255       355.436923                                              
                                 28          697.134359       335.598511       355.567179                                              
                                 29          697.394872       335.728767       355.697436                                              
                                 30          697.655385       335.859024       355.827692                                              
                                 31          697.915897       335.989280       355.957949                                              
                                 32          698.176410       336.119537       356.088205                                              
                                 33          698.436923       336.249793       356.218462                                              
                                 34          698.697436       336.380049       356.348718                                              
                                 35          698.957949       336.510306       356.478974                                              
                                 36          699.218462       336.640562       356.609231                                              
                                 37          699.478974       336.770819       356.739487                                              
                                 38          699.739487       336.901075       356.869744                                              
                                 39          700.000000       337.031331       357.000000                                              
 418              (3,3,6)        1           690.100513       332.082265       352.050256      03_03_06                                
                                 2           690.361026       332.212521       352.180513                                              
                                 3           690.621538       332.342777       352.310769                                              
                                 4           690.882051       332.473034       352.441026                                              
                                 5           691.142564       332.603290       352.571282                                              
                                 6           691.403077       332.733547       352.701538                                              
                                 7           691.663590       332.863803       352.831795                                              
                                 8           691.924103       332.994059       352.962051                                              
                                 9           692.184615       333.124316       353.092308                                              
                                 10          692.445128       333.254572       353.222564                                              
                                 11          692.705641       333.384829       353.352821                                              
                                 12          692.966154       333.515085       353.483077                                              
                                 13          693.226667       333.645342       353.613333                                              
                                 14          693.487179       333.775598       353.743590                                              
                                 15          693.747692       333.905854       353.873846                                              
                                 16          694.008205       334.036111       354.004103                                              
                                 17          694.268718       334.166367       354.134359                                              
                                 18          694.529231       334.296624       354.264615                                              
                                 19          694.789744       334.426880       354.394872                                              
                                 20          695.050256       334.557136       354.525128                                              
                                 21          695.310769       334.687393       354.655385                                              
                                 22          695.571282       334.817649       354.785641                                              
                                 23          695.831795       334.947906       354.915897                                              
                                 24          696.092308       335.078162       355.046154                                              
                                 25          696.352821       335.208418       355.176410                                              
                                 26          696.613333       335.338675       355.306667                                              
                                 27          696.873846       335.468931       355.436923                                              
                                 28          697.134359       335.599188       355.567179                                              
                                 29          697.394872       335.729444       355.697436                                              
                                 30          697.655385       335.859701       355.827692                                              
                                 31          697.915897       335.989957       355.957949                                              
                                 32          698.176410       336.120213       356.088205                                              
                                 33          698.436923       336.250470       356.218462                                              
                                 34          698.697436       336.380726       356.348718                                              
                                 35          698.957949       336.510983       356.478974                                              
                                 36          699.218462       336.641239       356.609231                                              
                                 37          699.478974       336.771495       356.739487                                              
                                 38          699.739487       336.901752       356.869744                                              
                                 39          700.000000       337.032008       357.000000                                              
 419              (3,3,7)        1           690.100513       332.083606       352.050256      03_03_07                                
                                 2           690.361026       332.213863       352.180513                                              
                                 3           690.621538       332.344119       352.310769                                              
                                 4           690.882051       332.474376       352.441026                                              
                                 5           691.142564       332.604632       352.571282                                              
                                 6           691.403077       332.734888       352.701538                                              
                                 7           691.663590       332.865145       352.831795                                              
                                 8           691.924103       332.995401       352.962051                                              
                                 9           692.184615       333.125658       353.092308                                              
                                 10          692.445128       333.255914       353.222564                                              
                                 11          692.705641       333.386171       353.352821                                              
                                 12          692.966154       333.516427       353.483077                                              
                                 13          693.226667       333.646683       353.613333                                              
                                 14          693.487179       333.776940       353.743590                                              
                                 15          693.747692       333.907196       353.873846                                              
                                 16          694.008205       334.037453       354.004103                                              
                                 17          694.268718       334.167709       354.134359                                              
                                 18          694.529231       334.297965       354.264615                                              
                                 19          694.789744       334.428222       354.394872                                              
                                 20          695.050256       334.558478       354.525128                                              
                                 21          695.310769       334.688735       354.655385                                              
                                 22          695.571282       334.818991       354.785641                                              
                                 23          695.831795       334.949247       354.915897                                              
                                 24          696.092308       335.079504       355.046154                                              
                                 25          696.352821       335.209760       355.176410                                              
                                 26          696.613333       335.340017       355.306667                                              
                                 27          696.873846       335.470273       355.436923                                              
                                 28          697.134359       335.600529       355.567179                                              
                                 29          697.394872       335.730786       355.697436                                              
                                 30          697.655385       335.861042       355.827692                                              
                                 31          697.915897       335.991299       355.957949                                              
                                 32          698.176410       336.121555       356.088205                                              
                                 33          698.436923       336.251812       356.218462                                              
                                 34          698.697436       336.382068       356.348718                                              
                                 35          698.957949       336.512324       356.478974                                              
                                 36          699.218462       336.642581       356.609231                                              
                                 37          699.478974       336.772837       356.739487                                              
                                 38          699.739487       336.903094       356.869744                                              
                                 39          700.000000       337.033350       357.000000                                              
 420              (3,3,8)        1           690.100513       332.085769       352.050256      03_03_08                                
                                 2           690.361026       332.216026       352.180513                                              
                                 3           690.621538       332.346282       352.310769                                              
                                 4           690.882051       332.476538       352.441026                                              
                                 5           691.142564       332.606795       352.571282                                              
                                 6           691.403077       332.737051       352.701538                                              
                                 7           691.663590       332.867308       352.831795                                              
                                 8           691.924103       332.997564       352.962051                                              
                                 9           692.184615       333.127821       353.092308                                              
                                 10          692.445128       333.258077       353.222564                                              
                                 11          692.705641       333.388333       353.352821                                              
                                 12          692.966154       333.518590       353.483077                                              
                                 13          693.226667       333.648846       353.613333                                              
                                 14          693.487179       333.779103       353.743590                                              
                                 15          693.747692       333.909359       353.873846                                              
                                 16          694.008205       334.039615       354.004103                                              
                                 17          694.268718       334.169872       354.134359                                              
                                 18          694.529231       334.300128       354.264615                                              
                                 19          694.789744       334.430385       354.394872                                              
                                 20          695.050256       334.560641       354.525128                                              
                                 21          695.310769       334.690897       354.655385                                              
                                 22          695.571282       334.821154       354.785641                                              
                                 23          695.831795       334.951410       354.915897                                              
                                 24          696.092308       335.081667       355.046154                                              
                                 25          696.352821       335.211923       355.176410                                              
                                 26          696.613333       335.342180       355.306667                                              
                                 27          696.873846       335.472436       355.436923                                              
                                 28          697.134359       335.602692       355.567179                                              
                                 29          697.394872       335.732949       355.697436                                              
                                 30          697.655385       335.863205       355.827692                                              
                                 31          697.915897       335.993462       355.957949                                              
                                 32          698.176410       336.123718       356.088205                                              
                                 33          698.436923       336.253974       356.218462                                              
                                 34          698.697436       336.384231       356.348718                                              
                                 35          698.957949       336.514487       356.478974                                              
                                 36          699.218462       336.644744       356.609231                                              
                                 37          699.478974       336.775000       356.739487                                              
                                 38          699.739487       336.905256       356.869744                                              
                                 39          700.000000       337.035513       357.000000                                              
 421              (3,3,9)        1           690.100513       332.089108       352.050256      03_03_09                                
                                 2           690.361026       332.219364       352.180513                                              
                                 3           690.621538       332.349620       352.310769                                              
                                 4           690.882051       332.479877       352.441026                                              
                                 5           691.142564       332.610133       352.571282                                              
                                 6           691.403077       332.740390       352.701538                                              
                                 7           691.663590       332.870646       352.831795                                              
                                 8           691.924103       333.000902       352.962051                                              
                                 9           692.184615       333.131159       353.092308                                              
                                 10          692.445128       333.261415       353.222564                                              
                                 11          692.705641       333.391672       353.352821                                              
                                 12          692.966154       333.521928       353.483077                                              
                                 13          693.226667       333.652185       353.613333                                              
                                 14          693.487179       333.782441       353.743590                                              
                                 15          693.747692       333.912697       353.873846                                              
                                 16          694.008205       334.042954       354.004103                                              
                                 17          694.268718       334.173210       354.134359                                              
                                 18          694.529231       334.303467       354.264615                                              
                                 19          694.789744       334.433723       354.394872                                              
                                 20          695.050256       334.563979       354.525128                                              
                                 21          695.310769       334.694236       354.655385                                              
                                 22          695.571282       334.824492       354.785641                                              
                                 23          695.831795       334.954749       354.915897                                              
                                 24          696.092308       335.085005       355.046154                                              
                                 25          696.352821       335.215261       355.176410                                              
                                 26          696.613333       335.345518       355.306667                                              
                                 27          696.873846       335.475774       355.436923                                              
                                 28          697.134359       335.606031       355.567179                                              
                                 29          697.394872       335.736287       355.697436                                              
                                 30          697.655385       335.866544       355.827692                                              
                                 31          697.915897       335.996800       355.957949                                              
                                 32          698.176410       336.127056       356.088205                                              
                                 33          698.436923       336.257313       356.218462                                              
                                 34          698.697436       336.387569       356.348718                                              
                                 35          698.957949       336.517826       356.478974                                              
                                 36          699.218462       336.648082       356.609231                                              
                                 37          699.478974       336.778338       356.739487                                              
                                 38          699.739487       336.908595       356.869744                                              
                                 39          700.000000       337.038851       357.000000                                              
 422              (3,3,10)       1           690.100513       332.093467       352.050256      03_03_10                                
                                 2           690.361026       332.223724       352.180513                                              
                                 3           690.621538       332.353980       352.310769                                              
                                 4           690.882051       332.484236       352.441026                                              
                                 5           691.142564       332.614493       352.571282                                              
                                 6           691.403077       332.744749       352.701538                                              
                                 7           691.663590       332.875006       352.831795                                              
                                 8           691.924103       333.005262       352.962051                                              
                                 9           692.184615       333.135518       353.092308                                              
                                 10          692.445128       333.265775       353.222564                                              
                                 11          692.705641       333.396031       353.352821                                              
                                 12          692.966154       333.526288       353.483077                                              
                                 13          693.226667       333.656544       353.613333                                              
                                 14          693.487179       333.786800       353.743590                                              
                                 15          693.747692       333.917057       353.873846                                              
                                 16          694.008205       334.047313       354.004103                                              
                                 17          694.268718       334.177570       354.134359                                              
                                 18          694.529231       334.307826       354.264615                                              
                                 19          694.789744       334.438083       354.394872                                              
                                 20          695.050256       334.568339       354.525128                                              
                                 21          695.310769       334.698595       354.655385                                              
                                 22          695.571282       334.828852       354.785641                                              
                                 23          695.831795       334.959108       354.915897                                              
                                 24          696.092308       335.089365       355.046154                                              
                                 25          696.352821       335.219621       355.176410                                              
                                 26          696.613333       335.349877       355.306667                                              
                                 27          696.873846       335.480134       355.436923                                              
                                 28          697.134359       335.610390       355.567179                                              
                                 29          697.394872       335.740647       355.697436                                              
                                 30          697.655385       335.870903       355.827692                                              
                                 31          697.915897       336.001159       355.957949                                              
                                 32          698.176410       336.131416       356.088205                                              
                                 33          698.436923       336.261672       356.218462                                              
                                 34          698.697436       336.391929       356.348718                                              
                                 35          698.957949       336.522185       356.478974                                              
                                 36          699.218462       336.652441       356.609231                                              
                                 37          699.478974       336.782698       356.739487                                              
                                 38          699.739487       336.912954       356.869744                                              
                                 39          700.000000       337.043211       357.000000                                              
 423              (3,4,1)        1           690.100513       332.179123       352.050256      03_04_01                                
                                 2           690.361026       332.309380       352.180513                                              
                                 3           690.621538       332.439636       352.310769                                              
                                 4           690.882051       332.569892       352.441026                                              
                                 5           691.142564       332.700149       352.571282                                              
                                 6           691.403077       332.830405       352.701538                                              
                                 7           691.663590       332.960662       352.831795                                              
                                 8           691.924103       333.090918       352.962051                                              
                                 9           692.184615       333.221174       353.092308                                              
                                 10          692.445128       333.351431       353.222564                                              
                                 11          692.705641       333.481687       353.352821                                              
                                 12          692.966154       333.611944       353.483077                                              
                                 13          693.226667       333.742200       353.613333                                              
                                 14          693.487179       333.872456       353.743590                                              
                                 15          693.747692       334.002713       353.873846                                              
                                 16          694.008205       334.132969       354.004103                                              
                                 17          694.268718       334.263226       354.134359                                              
                                 18          694.529231       334.393482       354.264615                                              
                                 19          694.789744       334.523739       354.394872                                              
                                 20          695.050256       334.653995       354.525128                                              
                                 21          695.310769       334.784251       354.655385                                              
                                 22          695.571282       334.914508       354.785641                                              
                                 23          695.831795       335.044764       354.915897                                              
                                 24          696.092308       335.175021       355.046154                                              
                                 25          696.352821       335.305277       355.176410                                              
                                 26          696.613333       335.435533       355.306667                                              
                                 27          696.873846       335.565790       355.436923                                              
                                 28          697.134359       335.696046       355.567179                                              
                                 29          697.394872       335.826303       355.697436                                              
                                 30          697.655385       335.956559       355.827692                                              
                                 31          697.915897       336.086815       355.957949                                              
                                 32          698.176410       336.217072       356.088205                                              
                                 33          698.436923       336.347328       356.218462                                              
                                 34          698.697436       336.477585       356.348718                                              
                                 35          698.957949       336.607841       356.478974                                              
                                 36          699.218462       336.738098       356.609231                                              
                                 37          699.478974       336.868354       356.739487                                              
                                 38          699.739487       336.998610       356.869744                                              
                                 39          700.000000       337.128867       357.000000                                              
 424              (3,4,2)        1           690.100513       332.176103       352.050256      03_04_02                                
                                 2           690.361026       332.306359       352.180513                                              
                                 3           690.621538       332.436615       352.310769                                              
                                 4           690.882051       332.566872       352.441026                                              
                                 5           691.142564       332.697128       352.571282                                              
                                 6           691.403077       332.827385       352.701538                                              
                                 7           691.663590       332.957641       352.831795                                              
                                 8           691.924103       333.087898       352.962051                                              
                                 9           692.184615       333.218154       353.092308                                              
                                 10          692.445128       333.348410       353.222564                                              
                                 11          692.705641       333.478667       353.352821                                              
                                 12          692.966154       333.608923       353.483077                                              
                                 13          693.226667       333.739180       353.613333                                              
                                 14          693.487179       333.869436       353.743590                                              
                                 15          693.747692       333.999692       353.873846                                              
                                 16          694.008205       334.129949       354.004103                                              
                                 17          694.268718       334.260205       354.134359                                              
                                 18          694.529231       334.390462       354.264615                                              
                                 19          694.789744       334.520718       354.394872                                              
                                 20          695.050256       334.650974       354.525128                                              
                                 21          695.310769       334.781231       354.655385                                              
                                 22          695.571282       334.911487       354.785641                                              
                                 23          695.831795       335.041744       354.915897                                              
                                 24          696.092308       335.172000       355.046154                                              
                                 25          696.352821       335.302256       355.176410                                              
                                 26          696.613333       335.432513       355.306667                                              
                                 27          696.873846       335.562769       355.436923                                              
                                 28          697.134359       335.693026       355.567179                                              
                                 29          697.394872       335.823282       355.697436                                              
                                 30          697.655385       335.953539       355.827692                                              
                                 31          697.915897       336.083795       355.957949                                              
                                 32          698.176410       336.214051       356.088205                                              
                                 33          698.436923       336.344308       356.218462                                              
                                 34          698.697436       336.474564       356.348718                                              
                                 35          698.957949       336.604821       356.478974                                              
                                 36          699.218462       336.735077       356.609231                                              
                                 37          699.478974       336.865333       356.739487                                              
                                 38          699.739487       336.995590       356.869744                                              
                                 39          700.000000       337.125846       357.000000                                              
 425              (3,4,3)        1           690.100513       332.174245       352.050256      03_04_03                                
                                 2           690.361026       332.304501       352.180513                                              
                                 3           690.621538       332.434757       352.310769                                              
                                 4           690.882051       332.565014       352.441026                                              
                                 5           691.142564       332.695270       352.571282                                              
                                 6           691.403077       332.825527       352.701538                                              
                                 7           691.663590       332.955783       352.831795                                              
                                 8           691.924103       333.086039       352.962051                                              
                                 9           692.184615       333.216296       353.092308                                              
                                 10          692.445128       333.346552       353.222564                                              
                                 11          692.705641       333.476809       353.352821                                              
                                 12          692.966154       333.607065       353.483077                                              
                                 13          693.226667       333.737321       353.613333                                              
                                 14          693.487179       333.867578       353.743590                                              
                                 15          693.747692       333.997834       353.873846                                              
                                 16          694.008205       334.128091       354.004103                                              
                                 17          694.268718       334.258347       354.134359                                              
                                 18          694.529231       334.388604       354.264615                                              
                                 19          694.789744       334.518860       354.394872                                              
                                 20          695.050256       334.649116       354.525128                                              
                                 21          695.310769       334.779373       354.655385                                              
                                 22          695.571282       334.909629       354.785641                                              
                                 23          695.831795       335.039886       354.915897                                              
                                 24          696.092308       335.170142       355.046154                                              
                                 25          696.352821       335.300398       355.176410                                              
                                 26          696.613333       335.430655       355.306667                                              
                                 27          696.873846       335.560911       355.436923                                              
                                 28          697.134359       335.691168       355.567179                                              
                                 29          697.394872       335.821424       355.697436                                              
                                 30          697.655385       335.951680       355.827692                                              
                                 31          697.915897       336.081937       355.957949                                              
                                 32          698.176410       336.212193       356.088205                                              
                                 33          698.436923       336.342450       356.218462                                              
                                 34          698.697436       336.472706       356.348718                                              
                                 35          698.957949       336.602962       356.478974                                              
                                 36          699.218462       336.733219       356.609231                                              
                                 37          699.478974       336.863475       356.739487                                              
                                 38          699.739487       336.993732       356.869744                                              
                                 39          700.000000       337.123988       357.000000                                              
 426              (3,4,4)        1           690.100513       332.173587       352.050256      03_04_04                                
                                 2           690.361026       332.303844       352.180513                                              
                                 3           690.621538       332.434100       352.310769                                              
                                 4           690.882051       332.564357       352.441026                                              
                                 5           691.142564       332.694613       352.571282                                              
                                 6           691.403077       332.824869       352.701538                                              
                                 7           691.663590       332.955126       352.831795                                              
                                 8           691.924103       333.085382       352.962051                                              
                                 9           692.184615       333.215639       353.092308                                              
                                 10          692.445128       333.345895       353.222564                                              
                                 11          692.705641       333.476152       353.352821                                              
                                 12          692.966154       333.606408       353.483077                                              
                                 13          693.226667       333.736664       353.613333                                              
                                 14          693.487179       333.866921       353.743590                                              
                                 15          693.747692       333.997177       353.873846                                              
                                 16          694.008205       334.127434       354.004103                                              
                                 17          694.268718       334.257690       354.134359                                              
                                 18          694.529231       334.387946       354.264615                                              
                                 19          694.789744       334.518203       354.394872                                              
                                 20          695.050256       334.648459       354.525128                                              
                                 21          695.310769       334.778716       354.655385                                              
                                 22          695.571282       334.908972       354.785641                                              
                                 23          695.831795       335.039228       354.915897                                              
                                 24          696.092308       335.169485       355.046154                                              
                                 25          696.352821       335.299741       355.176410                                              
                                 26          696.613333       335.429998       355.306667                                              
                                 27          696.873846       335.560254       355.436923                                              
                                 28          697.134359       335.690510       355.567179                                              
                                 29          697.394872       335.820767       355.697436                                              
                                 30          697.655385       335.951023       355.827692                                              
                                 31          697.915897       336.081280       355.957949                                              
                                 32          698.176410       336.211536       356.088205                                              
                                 33          698.436923       336.341793       356.218462                                              
                                 34          698.697436       336.472049       356.348718                                              
                                 35          698.957949       336.602305       356.478974                                              
                                 36          699.218462       336.732562       356.609231                                              
                                 37          699.478974       336.862818       356.739487                                              
                                 38          699.739487       336.993075       356.869744                                              
                                 39          700.000000       337.123331       357.000000                                              
 427              (3,4,5)        1           690.100513       332.173756       352.050256      03_04_05                                
                                 2           690.361026       332.304012       352.180513                                              
                                 3           690.621538       332.434269       352.310769                                              
                                 4           690.882051       332.564525       352.441026                                              
                                 5           691.142564       332.694782       352.571282                                              
                                 6           691.403077       332.825038       352.701538                                              
                                 7           691.663590       332.955294       352.831795                                              
                                 8           691.924103       333.085551       352.962051                                              
                                 9           692.184615       333.215807       353.092308                                              
                                 10          692.445128       333.346064       353.222564                                              
                                 11          692.705641       333.476320       353.352821                                              
                                 12          692.966154       333.606576       353.483077                                              
                                 13          693.226667       333.736833       353.613333                                              
                                 14          693.487179       333.867089       353.743590                                              
                                 15          693.747692       333.997346       353.873846                                              
                                 16          694.008205       334.127602       354.004103                                              
                                 17          694.268718       334.257859       354.134359                                              
                                 18          694.529231       334.388115       354.264615                                              
                                 19          694.789744       334.518371       354.394872                                              
                                 20          695.050256       334.648628       354.525128                                              
                                 21          695.310769       334.778884       354.655385                                              
                                 22          695.571282       334.909141       354.785641                                              
                                 23          695.831795       335.039397       354.915897                                              
                                 24          696.092308       335.169653       355.046154                                              
                                 25          696.352821       335.299910       355.176410                                              
                                 26          696.613333       335.430166       355.306667                                              
                                 27          696.873846       335.560423       355.436923                                              
                                 28          697.134359       335.690679       355.567179                                              
                                 29          697.394872       335.820935       355.697436                                              
                                 30          697.655385       335.951192       355.827692                                              
                                 31          697.915897       336.081448       355.957949                                              
                                 32          698.176410       336.211705       356.088205                                              
                                 33          698.436923       336.341961       356.218462                                              
                                 34          698.697436       336.472218       356.348718                                              
                                 35          698.957949       336.602474       356.478974                                              
                                 36          699.218462       336.732730       356.609231                                              
                                 37          699.478974       336.862987       356.739487                                              
                                 38          699.739487       336.993243       356.869744                                              
                                 39          700.000000       337.123500       357.000000                                              
 428              (3,4,6)        1           690.100513       332.174510       352.050256      03_04_06                                
                                 2           690.361026       332.304767       352.180513                                              
                                 3           690.621538       332.435023       352.310769                                              
                                 4           690.882051       332.565279       352.441026                                              
                                 5           691.142564       332.695536       352.571282                                              
                                 6           691.403077       332.825792       352.701538                                              
                                 7           691.663590       332.956049       352.831795                                              
                                 8           691.924103       333.086305       352.962051                                              
                                 9           692.184615       333.216562       353.092308                                              
                                 10          692.445128       333.346818       353.222564                                              
                                 11          692.705641       333.477074       353.352821                                              
                                 12          692.966154       333.607331       353.483077                                              
                                 13          693.226667       333.737587       353.613333                                              
                                 14          693.487179       333.867844       353.743590                                              
                                 15          693.747692       333.998100       353.873846                                              
                                 16          694.008205       334.128356       354.004103                                              
                                 17          694.268718       334.258613       354.134359                                              
                                 18          694.529231       334.388869       354.264615                                              
                                 19          694.789744       334.519126       354.394872                                              
                                 20          695.050256       334.649382       354.525128                                              
                                 21          695.310769       334.779638       354.655385                                              
                                 22          695.571282       334.909895       354.785641                                              
                                 23          695.831795       335.040151       354.915897                                              
                                 24          696.092308       335.170408       355.046154                                              
                                 25          696.352821       335.300664       355.176410                                              
                                 26          696.613333       335.430921       355.306667                                              
                                 27          696.873846       335.561177       355.436923                                              
                                 28          697.134359       335.691433       355.567179                                              
                                 29          697.394872       335.821690       355.697436                                              
                                 30          697.655385       335.951946       355.827692                                              
                                 31          697.915897       336.082203       355.957949                                              
                                 32          698.176410       336.212459       356.088205                                              
                                 33          698.436923       336.342715       356.218462                                              
                                 34          698.697436       336.472972       356.348718                                              
                                 35          698.957949       336.603228       356.478974                                              
                                 36          699.218462       336.733485       356.609231                                              
                                 37          699.478974       336.863741       356.739487                                              
                                 38          699.739487       336.993997       356.869744                                              
                                 39          700.000000       337.124254       357.000000                                              
 429              (3,4,7)        1           690.100513       332.175771       352.050256      03_04_07                                
                                 2           690.361026       332.306027       352.180513                                              
                                 3           690.621538       332.436284       352.310769                                              
                                 4           690.882051       332.566540       352.441026                                              
                                 5           691.142564       332.696796       352.571282                                              
                                 6           691.403077       332.827053       352.701538                                              
                                 7           691.663590       332.957309       352.831795                                              
                                 8           691.924103       333.087566       352.962051                                              
                                 9           692.184615       333.217822       353.092308                                              
                                 10          692.445128       333.348079       353.222564                                              
                                 11          692.705641       333.478335       353.352821                                              
                                 12          692.966154       333.608591       353.483077                                              
                                 13          693.226667       333.738848       353.613333                                              
                                 14          693.487179       333.869104       353.743590                                              
                                 15          693.747692       333.999361       353.873846                                              
                                 16          694.008205       334.129617       354.004103                                              
                                 17          694.268718       334.259873       354.134359                                              
                                 18          694.529231       334.390130       354.264615                                              
                                 19          694.789744       334.520386       354.394872                                              
                                 20          695.050256       334.650643       354.525128                                              
                                 21          695.310769       334.780899       354.655385                                              
                                 22          695.571282       334.911155       354.785641                                              
                                 23          695.831795       335.041412       354.915897                                              
                                 24          696.092308       335.171668       355.046154                                              
                                 25          696.352821       335.301925       355.176410                                              
                                 26          696.613333       335.432181       355.306667                                              
                                 27          696.873846       335.562437       355.436923                                              
                                 28          697.134359       335.692694       355.567179                                              
                                 29          697.394872       335.822950       355.697436                                              
                                 30          697.655385       335.953207       355.827692                                              
                                 31          697.915897       336.083463       355.957949                                              
                                 32          698.176410       336.213720       356.088205                                              
                                 33          698.436923       336.343976       356.218462                                              
                                 34          698.697436       336.474232       356.348718                                              
                                 35          698.957949       336.604489       356.478974                                              
                                 36          699.218462       336.734745       356.609231                                              
                                 37          699.478974       336.865002       356.739487                                              
                                 38          699.739487       336.995258       356.869744                                              
                                 39          700.000000       337.125514       357.000000                                              
 430              (3,4,8)        1           690.100513       332.177604       352.050256      03_04_08                                
                                 2           690.361026       332.307861       352.180513                                              
                                 3           690.621538       332.438117       352.310769                                              
                                 4           690.882051       332.568373       352.441026                                              
                                 5           691.142564       332.698630       352.571282                                              
                                 6           691.403077       332.828886       352.701538                                              
                                 7           691.663590       332.959143       352.831795                                              
                                 8           691.924103       333.089399       352.962051                                              
                                 9           692.184615       333.219655       353.092308                                              
                                 10          692.445128       333.349912       353.222564                                              
                                 11          692.705641       333.480168       353.352821                                              
                                 12          692.966154       333.610425       353.483077                                              
                                 13          693.226667       333.740681       353.613333                                              
                                 14          693.487179       333.870937       353.743590                                              
                                 15          693.747692       334.001194       353.873846                                              
                                 16          694.008205       334.131450       354.004103                                              
                                 17          694.268718       334.261707       354.134359                                              
                                 18          694.529231       334.391963       354.264615                                              
                                 19          694.789744       334.522219       354.394872                                              
                                 20          695.050256       334.652476       354.525128                                              
                                 21          695.310769       334.782732       354.655385                                              
                                 22          695.571282       334.912989       354.785641                                              
                                 23          695.831795       335.043245       354.915897                                              
                                 24          696.092308       335.173502       355.046154                                              
                                 25          696.352821       335.303758       355.176410                                              
                                 26          696.613333       335.434014       355.306667                                              
                                 27          696.873846       335.564271       355.436923                                              
                                 28          697.134359       335.694527       355.567179                                              
                                 29          697.394872       335.824784       355.697436                                              
                                 30          697.655385       335.955040       355.827692                                              
                                 31          697.915897       336.085296       355.957949                                              
                                 32          698.176410       336.215553       356.088205                                              
                                 33          698.436923       336.345809       356.218462                                              
                                 34          698.697436       336.476066       356.348718                                              
                                 35          698.957949       336.606322       356.478974                                              
                                 36          699.218462       336.736578       356.609231                                              
                                 37          699.478974       336.866835       356.739487                                              
                                 38          699.739487       336.997091       356.869744                                              
                                 39          700.000000       337.127348       357.000000                                              
 431              (3,4,9)        1           690.100513       332.180164       352.050256      03_04_09                                
                                 2           690.361026       332.310421       352.180513                                              
                                 3           690.621538       332.440677       352.310769                                              
                                 4           690.882051       332.570933       352.441026                                              
                                 5           691.142564       332.701190       352.571282                                              
                                 6           691.403077       332.831446       352.701538                                              
                                 7           691.663590       332.961703       352.831795                                              
                                 8           691.924103       333.091959       352.962051                                              
                                 9           692.184615       333.222215       353.092308                                              
                                 10          692.445128       333.352472       353.222564                                              
                                 11          692.705641       333.482728       353.352821                                              
                                 12          692.966154       333.612985       353.483077                                              
                                 13          693.226667       333.743241       353.613333                                              
                                 14          693.487179       333.873497       353.743590                                              
                                 15          693.747692       334.003754       353.873846                                              
                                 16          694.008205       334.134010       354.004103                                              
                                 17          694.268718       334.264267       354.134359                                              
                                 18          694.529231       334.394523       354.264615                                              
                                 19          694.789744       334.524780       354.394872                                              
                                 20          695.050256       334.655036       354.525128                                              
                                 21          695.310769       334.785292       354.655385                                              
                                 22          695.571282       334.915549       354.785641                                              
                                 23          695.831795       335.045805       354.915897                                              
                                 24          696.092308       335.176062       355.046154                                              
                                 25          696.352821       335.306318       355.176410                                              
                                 26          696.613333       335.436574       355.306667                                              
                                 27          696.873846       335.566831       355.436923                                              
                                 28          697.134359       335.697087       355.567179                                              
                                 29          697.394872       335.827344       355.697436                                              
                                 30          697.655385       335.957600       355.827692                                              
                                 31          697.915897       336.087856       355.957949                                              
                                 32          698.176410       336.218113       356.088205                                              
                                 33          698.436923       336.348369       356.218462                                              
                                 34          698.697436       336.478626       356.348718                                              
                                 35          698.957949       336.608882       356.478974                                              
                                 36          699.218462       336.739138       356.609231                                              
                                 37          699.478974       336.869395       356.739487                                              
                                 38          699.739487       336.999651       356.869744                                              
                                 39          700.000000       337.129908       357.000000                                              
 432              (3,4,10)       1           690.100513       332.183187       352.050256      03_04_10                                
                                 2           690.361026       332.313444       352.180513                                              
                                 3           690.621538       332.443700       352.310769                                              
                                 4           690.882051       332.573957       352.441026                                              
                                 5           691.142564       332.704213       352.571282                                              
                                 6           691.403077       332.834469       352.701538                                              
                                 7           691.663590       332.964726       352.831795                                              
                                 8           691.924103       333.094982       352.962051                                              
                                 9           692.184615       333.225239       353.092308                                              
                                 10          692.445128       333.355495       353.222564                                              
                                 11          692.705641       333.485751       353.352821                                              
                                 12          692.966154       333.616008       353.483077                                              
                                 13          693.226667       333.746264       353.613333                                              
                                 14          693.487179       333.876521       353.743590                                              
                                 15          693.747692       334.006777       353.873846                                              
                                 16          694.008205       334.137033       354.004103                                              
                                 17          694.268718       334.267290       354.134359                                              
                                 18          694.529231       334.397546       354.264615                                              
                                 19          694.789744       334.527803       354.394872                                              
                                 20          695.050256       334.658059       354.525128                                              
                                 21          695.310769       334.788316       354.655385                                              
                                 22          695.571282       334.918572       354.785641                                              
                                 23          695.831795       335.048828       354.915897                                              
                                 24          696.092308       335.179085       355.046154                                              
                                 25          696.352821       335.309341       355.176410                                              
                                 26          696.613333       335.439598       355.306667                                              
                                 27          696.873846       335.569854       355.436923                                              
                                 28          697.134359       335.700110       355.567179                                              
                                 29          697.394872       335.830367       355.697436                                              
                                 30          697.655385       335.960623       355.827692                                              
                                 31          697.915897       336.090880       355.957949                                              
                                 32          698.176410       336.221136       356.088205                                              
                                 33          698.436923       336.351392       356.218462                                              
                                 34          698.697436       336.481649       356.348718                                              
                                 35          698.957949       336.611905       356.478974                                              
                                 36          699.218462       336.742162       356.609231                                              
                                 37          699.478974       336.872418       356.739487                                              
                                 38          699.739487       337.002674       356.869744                                              
                                 39          700.000000       337.132931       357.000000                                              
 433              (3,5,1)        1           690.100513       332.288323       352.050256      03_05_01                                
                                 2           690.361026       332.418579       352.180513                                              
                                 3           690.621538       332.548835       352.310769                                              
                                 4           690.882051       332.679092       352.441026                                              
                                 5           691.142564       332.809348       352.571282                                              
                                 6           691.403077       332.939605       352.701538                                              
                                 7           691.663590       333.069861       352.831795                                              
                                 8           691.924103       333.200117       352.962051                                              
                                 9           692.184615       333.330374       353.092308                                              
                                 10          692.445128       333.460630       353.222564                                              
                                 11          692.705641       333.590887       353.352821                                              
                                 12          692.966154       333.721143       353.483077                                              
                                 13          693.226667       333.851399       353.613333                                              
                                 14          693.487179       333.981656       353.743590                                              
                                 15          693.747692       334.111912       353.873846                                              
                                 16          694.008205       334.242169       354.004103                                              
                                 17          694.268718       334.372425       354.134359                                              
                                 18          694.529231       334.502682       354.264615                                              
                                 19          694.789744       334.632938       354.394872                                              
                                 20          695.050256       334.763194       354.525128                                              
                                 21          695.310769       334.893451       354.655385                                              
                                 22          695.571282       335.023707       354.785641                                              
                                 23          695.831795       335.153964       354.915897                                              
                                 24          696.092308       335.284220       355.046154                                              
                                 25          696.352821       335.414476       355.176410                                              
                                 26          696.613333       335.544733       355.306667                                              
                                 27          696.873846       335.674989       355.436923                                              
                                 28          697.134359       335.805246       355.567179                                              
                                 29          697.394872       335.935502       355.697436                                              
                                 30          697.655385       336.065758       355.827692                                              
                                 31          697.915897       336.196015       355.957949                                              
                                 32          698.176410       336.326271       356.088205                                              
                                 33          698.436923       336.456528       356.218462                                              
                                 34          698.697436       336.586784       356.348718                                              
                                 35          698.957949       336.717040       356.478974                                              
                                 36          699.218462       336.847297       356.609231                                              
                                 37          699.478974       336.977553       356.739487                                              
                                 38          699.739487       337.107810       356.869744                                              
                                 39          700.000000       337.238066       357.000000                                              
 434              (3,5,2)        1           690.100513       332.287024       352.050256      03_05_02                                
                                 2           690.361026       332.417280       352.180513                                              
                                 3           690.621538       332.547537       352.310769                                              
                                 4           690.882051       332.677793       352.441026                                              
                                 5           691.142564       332.808050       352.571282                                              
                                 6           691.403077       332.938306       352.701538                                              
                                 7           691.663590       333.068562       352.831795                                              
                                 8           691.924103       333.198819       352.962051                                              
                                 9           692.184615       333.329075       353.092308                                              
                                 10          692.445128       333.459332       353.222564                                              
                                 11          692.705641       333.589588       353.352821                                              
                                 12          692.966154       333.719845       353.483077                                              
                                 13          693.226667       333.850101       353.613333                                              
                                 14          693.487179       333.980357       353.743590                                              
                                 15          693.747692       334.110614       353.873846                                              
                                 16          694.008205       334.240870       354.004103                                              
                                 17          694.268718       334.371127       354.134359                                              
                                 18          694.529231       334.501383       354.264615                                              
                                 19          694.789744       334.631639       354.394872                                              
                                 20          695.050256       334.761896       354.525128                                              
                                 21          695.310769       334.892152       354.655385                                              
                                 22          695.571282       335.022409       354.785641                                              
                                 23          695.831795       335.152665       354.915897                                              
                                 24          696.092308       335.282921       355.046154                                              
                                 25          696.352821       335.413178       355.176410                                              
                                 26          696.613333       335.543434       355.306667                                              
                                 27          696.873846       335.673691       355.436923                                              
                                 28          697.134359       335.803947       355.567179                                              
                                 29          697.394872       335.934203       355.697436                                              
                                 30          697.655385       336.064460       355.827692                                              
                                 31          697.915897       336.194716       355.957949                                              
                                 32          698.176410       336.324973       356.088205                                              
                                 33          698.436923       336.455229       356.218462                                              
                                 34          698.697436       336.585486       356.348718                                              
                                 35          698.957949       336.715742       356.478974                                              
                                 36          699.218462       336.845998       356.609231                                              
                                 37          699.478974       336.976255       356.739487                                              
                                 38          699.739487       337.106511       356.869744                                              
                                 39          700.000000       337.236768       357.000000                                              
 435              (3,5,3)        1           690.100513       332.286336       352.050256      03_05_03                                
                                 2           690.361026       332.416593       352.180513                                              
                                 3           690.621538       332.546849       352.310769                                              
                                 4           690.882051       332.677105       352.441026                                              
                                 5           691.142564       332.807362       352.571282                                              
                                 6           691.403077       332.937618       352.701538                                              
                                 7           691.663590       333.067875       352.831795                                              
                                 8           691.924103       333.198131       352.962051                                              
                                 9           692.184615       333.328387       353.092308                                              
                                 10          692.445128       333.458644       353.222564                                              
                                 11          692.705641       333.588900       353.352821                                              
                                 12          692.966154       333.719157       353.483077                                              
                                 13          693.226667       333.849413       353.613333                                              
                                 14          693.487179       333.979670       353.743590                                              
                                 15          693.747692       334.109926       353.873846                                              
                                 16          694.008205       334.240182       354.004103                                              
                                 17          694.268718       334.370439       354.134359                                              
                                 18          694.529231       334.500695       354.264615                                              
                                 19          694.789744       334.630952       354.394872                                              
                                 20          695.050256       334.761208       354.525128                                              
                                 21          695.310769       334.891464       354.655385                                              
                                 22          695.571282       335.021721       354.785641                                              
                                 23          695.831795       335.151977       354.915897                                              
                                 24          696.092308       335.282234       355.046154                                              
                                 25          696.352821       335.412490       355.176410                                              
                                 26          696.613333       335.542746       355.306667                                              
                                 27          696.873846       335.673003       355.436923                                              
                                 28          697.134359       335.803259       355.567179                                              
                                 29          697.394872       335.933516       355.697436                                              
                                 30          697.655385       336.063772       355.827692                                              
                                 31          697.915897       336.194029       355.957949                                              
                                 32          698.176410       336.324285       356.088205                                              
                                 33          698.436923       336.454541       356.218462                                              
                                 34          698.697436       336.584798       356.348718                                              
                                 35          698.957949       336.715054       356.478974                                              
                                 36          699.218462       336.845311       356.609231                                              
                                 37          699.478974       336.975567       356.739487                                              
                                 38          699.739487       337.105823       356.869744                                              
                                 39          700.000000       337.236080       357.000000                                              
 436              (3,5,4)        1           690.100513       332.286292       352.050256      03_05_04                                
                                 2           690.361026       332.416548       352.180513                                              
                                 3           690.621538       332.546805       352.310769                                              
                                 4           690.882051       332.677061       352.441026                                              
                                 5           691.142564       332.807318       352.571282                                              
                                 6           691.403077       332.937574       352.701538                                              
                                 7           691.663590       333.067830       352.831795                                              
                                 8           691.924103       333.198087       352.962051                                              
                                 9           692.184615       333.328343       353.092308                                              
                                 10          692.445128       333.458600       353.222564                                              
                                 11          692.705641       333.588856       353.352821                                              
                                 12          692.966154       333.719112       353.483077                                              
                                 13          693.226667       333.849369       353.613333                                              
                                 14          693.487179       333.979625       353.743590                                              
                                 15          693.747692       334.109882       353.873846                                              
                                 16          694.008205       334.240138       354.004103                                              
                                 17          694.268718       334.370394       354.134359                                              
                                 18          694.529231       334.500651       354.264615                                              
                                 19          694.789744       334.630907       354.394872                                              
                                 20          695.050256       334.761164       354.525128                                              
                                 21          695.310769       334.891420       354.655385                                              
                                 22          695.571282       335.021676       354.785641                                              
                                 23          695.831795       335.151933       354.915897                                              
                                 24          696.092308       335.282189       355.046154                                              
                                 25          696.352821       335.412446       355.176410                                              
                                 26          696.613333       335.542702       355.306667                                              
                                 27          696.873846       335.672959       355.436923                                              
                                 28          697.134359       335.803215       355.567179                                              
                                 29          697.394872       335.933471       355.697436                                              
                                 30          697.655385       336.063728       355.827692                                              
                                 31          697.915897       336.193984       355.957949                                              
                                 32          698.176410       336.324241       356.088205                                              
                                 33          698.436923       336.454497       356.218462                                              
                                 34          698.697436       336.584753       356.348718                                              
                                 35          698.957949       336.715010       356.478974                                              
                                 36          699.218462       336.845266       356.609231                                              
                                 37          699.478974       336.975523       356.739487                                              
                                 38          699.739487       337.105779       356.869744                                              
                                 39          700.000000       337.236035       357.000000                                              
 437              (3,5,5)        1           690.100513       332.286680       352.050256      03_05_05                                
                                 2           690.361026       332.416937       352.180513                                              
                                 3           690.621538       332.547193       352.310769                                              
                                 4           690.882051       332.677450       352.441026                                              
                                 5           691.142564       332.807706       352.571282                                              
                                 6           691.403077       332.937962       352.701538                                              
                                 7           691.663590       333.068219       352.831795                                              
                                 8           691.924103       333.198475       352.962051                                              
                                 9           692.184615       333.328732       353.092308                                              
                                 10          692.445128       333.458988       353.222564                                              
                                 11          692.705641       333.589245       353.352821                                              
                                 12          692.966154       333.719501       353.483077                                              
                                 13          693.226667       333.849757       353.613333                                              
                                 14          693.487179       333.980014       353.743590                                              
                                 15          693.747692       334.110270       353.873846                                              
                                 16          694.008205       334.240527       354.004103                                              
                                 17          694.268718       334.370783       354.134359                                              
                                 18          694.529231       334.501039       354.264615                                              
                                 19          694.789744       334.631296       354.394872                                              
                                 20          695.050256       334.761552       354.525128                                              
                                 21          695.310769       334.891809       354.655385                                              
                                 22          695.571282       335.022065       354.785641                                              
                                 23          695.831795       335.152321       354.915897                                              
                                 24          696.092308       335.282578       355.046154                                              
                                 25          696.352821       335.412834       355.176410                                              
                                 26          696.613333       335.543091       355.306667                                              
                                 27          696.873846       335.673347       355.436923                                              
                                 28          697.134359       335.803603       355.567179                                              
                                 29          697.394872       335.933860       355.697436                                              
                                 30          697.655385       336.064116       355.827692                                              
                                 31          697.915897       336.194373       355.957949                                              
                                 32          698.176410       336.324629       356.088205                                              
                                 33          698.436923       336.454886       356.218462                                              
                                 34          698.697436       336.585142       356.348718                                              
                                 35          698.957949       336.715398       356.478974                                              
                                 36          699.218462       336.845655       356.609231                                              
                                 37          699.478974       336.975911       356.739487                                              
                                 38          699.739487       337.106168       356.869744                                              
                                 39          700.000000       337.236424       357.000000                                              
 438              (3,5,6)        1           690.100513       332.287342       352.050256      03_05_06                                
                                 2           690.361026       332.417599       352.180513                                              
                                 3           690.621538       332.547855       352.310769                                              
                                 4           690.882051       332.678112       352.441026                                              
                                 5           691.142564       332.808368       352.571282                                              
                                 6           691.403077       332.938624       352.701538                                              
                                 7           691.663590       333.068881       352.831795                                              
                                 8           691.924103       333.199137       352.962051                                              
                                 9           692.184615       333.329394       353.092308                                              
                                 10          692.445128       333.459650       353.222564                                              
                                 11          692.705641       333.589906       353.352821                                              
                                 12          692.966154       333.720163       353.483077                                              
                                 13          693.226667       333.850419       353.613333                                              
                                 14          693.487179       333.980676       353.743590                                              
                                 15          693.747692       334.110932       353.873846                                              
                                 16          694.008205       334.241188       354.004103                                              
                                 17          694.268718       334.371445       354.134359                                              
                                 18          694.529231       334.501701       354.264615                                              
                                 19          694.789744       334.631958       354.394872                                              
                                 20          695.050256       334.762214       354.525128                                              
                                 21          695.310769       334.892471       354.655385                                              
                                 22          695.571282       335.022727       354.785641                                              
                                 23          695.831795       335.152983       354.915897                                              
                                 24          696.092308       335.283240       355.046154                                              
                                 25          696.352821       335.413496       355.176410                                              
                                 26          696.613333       335.543753       355.306667                                              
                                 27          696.873846       335.674009       355.436923                                              
                                 28          697.134359       335.804265       355.567179                                              
                                 29          697.394872       335.934522       355.697436                                              
                                 30          697.655385       336.064778       355.827692                                              
                                 31          697.915897       336.195035       355.957949                                              
                                 32          698.176410       336.325291       356.088205                                              
                                 33          698.436923       336.455547       356.218462                                              
                                 34          698.697436       336.585804       356.348718                                              
                                 35          698.957949       336.716060       356.478974                                              
                                 36          699.218462       336.846317       356.609231                                              
                                 37          699.478974       336.976573       356.739487                                              
                                 38          699.739487       337.106830       356.869744                                              
                                 39          700.000000       337.237086       357.000000                                              
 439              (3,5,7)        1           690.100513       332.288201       352.050256      03_05_07                                
                                 2           690.361026       332.418458       352.180513                                              
                                 3           690.621538       332.548714       352.310769                                              
                                 4           690.882051       332.678971       352.441026                                              
                                 5           691.142564       332.809227       352.571282                                              
                                 6           691.403077       332.939483       352.701538                                              
                                 7           691.663590       333.069740       352.831795                                              
                                 8           691.924103       333.199996       352.962051                                              
                                 9           692.184615       333.330253       353.092308                                              
                                 10          692.445128       333.460509       353.222564                                              
                                 11          692.705641       333.590766       353.352821                                              
                                 12          692.966154       333.721022       353.483077                                              
                                 13          693.226667       333.851278       353.613333                                              
                                 14          693.487179       333.981535       353.743590                                              
                                 15          693.747692       334.111791       353.873846                                              
                                 16          694.008205       334.242048       354.004103                                              
                                 17          694.268718       334.372304       354.134359                                              
                                 18          694.529231       334.502560       354.264615                                              
                                 19          694.789744       334.632817       354.394872                                              
                                 20          695.050256       334.763073       354.525128                                              
                                 21          695.310769       334.893330       354.655385                                              
                                 22          695.571282       335.023586       354.785641                                              
                                 23          695.831795       335.153842       354.915897                                              
                                 24          696.092308       335.284099       355.046154                                              
                                 25          696.352821       335.414355       355.176410                                              
                                 26          696.613333       335.544612       355.306667                                              
                                 27          696.873846       335.674868       355.436923                                              
                                 28          697.134359       335.805125       355.567179                                              
                                 29          697.394872       335.935381       355.697436                                              
                                 30          697.655385       336.065637       355.827692                                              
                                 31          697.915897       336.195894       355.957949                                              
                                 32          698.176410       336.326150       356.088205                                              
                                 33          698.436923       336.456407       356.218462                                              
                                 34          698.697436       336.586663       356.348718                                              
                                 35          698.957949       336.716919       356.478974                                              
                                 36          699.218462       336.847176       356.609231                                              
                                 37          699.478974       336.977432       356.739487                                              
                                 38          699.739487       337.107689       356.869744                                              
                                 39          700.000000       337.237945       357.000000                                              
 440              (3,5,8)        1           690.100513       332.289260       352.050256      03_05_08                                
                                 2           690.361026       332.419516       352.180513                                              
                                 3           690.621538       332.549773       352.310769                                              
                                 4           690.882051       332.680029       352.441026                                              
                                 5           691.142564       332.810286       352.571282                                              
                                 6           691.403077       332.940542       352.701538                                              
                                 7           691.663590       333.070799       352.831795                                              
                                 8           691.924103       333.201055       352.962051                                              
                                 9           692.184615       333.331311       353.092308                                              
                                 10          692.445128       333.461568       353.222564                                              
                                 11          692.705641       333.591824       353.352821                                              
                                 12          692.966154       333.722081       353.483077                                              
                                 13          693.226667       333.852337       353.613333                                              
                                 14          693.487179       333.982593       353.743590                                              
                                 15          693.747692       334.112850       353.873846                                              
                                 16          694.008205       334.243106       354.004103                                              
                                 17          694.268718       334.373363       354.134359                                              
                                 18          694.529231       334.503619       354.264615                                              
                                 19          694.789744       334.633875       354.394872                                              
                                 20          695.050256       334.764132       354.525128                                              
                                 21          695.310769       334.894388       354.655385                                              
                                 22          695.571282       335.024645       354.785641                                              
                                 23          695.831795       335.154901       354.915897                                              
                                 24          696.092308       335.285157       355.046154                                              
                                 25          696.352821       335.415414       355.176410                                              
                                 26          696.613333       335.545670       355.306667                                              
                                 27          696.873846       335.675927       355.436923                                              
                                 28          697.134359       335.806183       355.567179                                              
                                 29          697.394872       335.936440       355.697436                                              
                                 30          697.655385       336.066696       355.827692                                              
                                 31          697.915897       336.196952       355.957949                                              
                                 32          698.176410       336.327209       356.088205                                              
                                 33          698.436923       336.457465       356.218462                                              
                                 34          698.697436       336.587722       356.348718                                              
                                 35          698.957949       336.717978       356.478974                                              
                                 36          699.218462       336.848234       356.609231                                              
                                 37          699.478974       336.978491       356.739487                                              
                                 38          699.739487       337.108747       356.869744                                              
                                 39          700.000000       337.239004       357.000000                                              
 441              (3,5,9)        1           690.100513       332.290564       352.050256      03_05_09                                
                                 2           690.361026       332.420820       352.180513                                              
                                 3           690.621538       332.551077       352.310769                                              
                                 4           690.882051       332.681333       352.441026                                              
                                 5           691.142564       332.811590       352.571282                                              
                                 6           691.403077       332.941846       352.701538                                              
                                 7           691.663590       333.072102       352.831795                                              
                                 8           691.924103       333.202359       352.962051                                              
                                 9           692.184615       333.332615       353.092308                                              
                                 10          692.445128       333.462872       353.222564                                              
                                 11          692.705641       333.593128       353.352821                                              
                                 12          692.966154       333.723384       353.483077                                              
                                 13          693.226667       333.853641       353.613333                                              
                                 14          693.487179       333.983897       353.743590                                              
                                 15          693.747692       334.114154       353.873846                                              
                                 16          694.008205       334.244410       354.004103                                              
                                 17          694.268718       334.374666       354.134359                                              
                                 18          694.529231       334.504923       354.264615                                              
                                 19          694.789744       334.635179       354.394872                                              
                                 20          695.050256       334.765436       354.525128                                              
                                 21          695.310769       334.895692       354.655385                                              
                                 22          695.571282       335.025949       354.785641                                              
                                 23          695.831795       335.156205       354.915897                                              
                                 24          696.092308       335.286461       355.046154                                              
                                 25          696.352821       335.416718       355.176410                                              
                                 26          696.613333       335.546974       355.306667                                              
                                 27          696.873846       335.677231       355.436923                                              
                                 28          697.134359       335.807487       355.567179                                              
                                 29          697.394872       335.937743       355.697436                                              
                                 30          697.655385       336.068000       355.827692                                              
                                 31          697.915897       336.198256       355.957949                                              
                                 32          698.176410       336.328513       356.088205                                              
                                 33          698.436923       336.458769       356.218462                                              
                                 34          698.697436       336.589025       356.348718                                              
                                 35          698.957949       336.719282       356.478974                                              
                                 36          699.218462       336.849538       356.609231                                              
                                 37          699.478974       336.979795       356.739487                                              
                                 38          699.739487       337.110051       356.869744                                              
                                 39          700.000000       337.240308       357.000000                                              
 442              (3,5,10)       1           690.100513       332.291972       352.050256      03_05_10                                
                                 2           690.361026       332.422228       352.180513                                              
                                 3           690.621538       332.552485       352.310769                                              
                                 4           690.882051       332.682741       352.441026                                              
                                 5           691.142564       332.812997       352.571282                                              
                                 6           691.403077       332.943254       352.701538                                              
                                 7           691.663590       333.073510       352.831795                                              
                                 8           691.924103       333.203767       352.962051                                              
                                 9           692.184615       333.334023       353.092308                                              
                                 10          692.445128       333.464279       353.222564                                              
                                 11          692.705641       333.594536       353.352821                                              
                                 12          692.966154       333.724792       353.483077                                              
                                 13          693.226667       333.855049       353.613333                                              
                                 14          693.487179       333.985305       353.743590                                              
                                 15          693.747692       334.115562       353.873846                                              
                                 16          694.008205       334.245818       354.004103                                              
                                 17          694.268718       334.376074       354.134359                                              
                                 18          694.529231       334.506331       354.264615                                              
                                 19          694.789744       334.636587       354.394872                                              
                                 20          695.050256       334.766844       354.525128                                              
                                 21          695.310769       334.897100       354.655385                                              
                                 22          695.571282       335.027356       354.785641                                              
                                 23          695.831795       335.157613       354.915897                                              
                                 24          696.092308       335.287869       355.046154                                              
                                 25          696.352821       335.418126       355.176410                                              
                                 26          696.613333       335.548382       355.306667                                              
                                 27          696.873846       335.678638       355.436923                                              
                                 28          697.134359       335.808895       355.567179                                              
                                 29          697.394872       335.939151       355.697436                                              
                                 30          697.655385       336.069408       355.827692                                              
                                 31          697.915897       336.199664       355.957949                                              
                                 32          698.176410       336.329921       356.088205                                              
                                 33          698.436923       336.460177       356.218462                                              
                                 34          698.697436       336.590433       356.348718                                              
                                 35          698.957949       336.720690       356.478974                                              
                                 36          699.218462       336.850946       356.609231                                              
                                 37          699.478974       336.981203       356.739487                                              
                                 38          699.739487       337.111459       356.869744                                              
                                 39          700.000000       337.241715       357.000000                                              
 443              (3,6,1)        1           690.100513       332.405307       352.050256      03_06_01                                
                                 2           690.361026       332.535563       352.180513                                              
                                 3           690.621538       332.665819       352.310769                                              
                                 4           690.882051       332.796076       352.441026                                              
                                 5           691.142564       332.926332       352.571282                                              
                                 6           691.403077       333.056589       352.701538                                              
                                 7           691.663590       333.186845       352.831795                                              
                                 8           691.924103       333.317101       352.962051                                              
                                 9           692.184615       333.447358       353.092308                                              
                                 10          692.445128       333.577614       353.222564                                              
                                 11          692.705641       333.707871       353.352821                                              
                                 12          692.966154       333.838127       353.483077                                              
                                 13          693.226667       333.968383       353.613333                                              
                                 14          693.487179       334.098640       353.743590                                              
                                 15          693.747692       334.228896       353.873846                                              
                                 16          694.008205       334.359153       354.004103                                              
                                 17          694.268718       334.489409       354.134359                                              
                                 18          694.529231       334.619666       354.264615                                              
                                 19          694.789744       334.749922       354.394872                                              
                                 20          695.050256       334.880178       354.525128                                              
                                 21          695.310769       335.010435       354.655385                                              
                                 22          695.571282       335.140691       354.785641                                              
                                 23          695.831795       335.270948       354.915897                                              
                                 24          696.092308       335.401204       355.046154                                              
                                 25          696.352821       335.531460       355.176410                                              
                                 26          696.613333       335.661717       355.306667                                              
                                 27          696.873846       335.791973       355.436923                                              
                                 28          697.134359       335.922230       355.567179                                              
                                 29          697.394872       336.052486       355.697436                                              
                                 30          697.655385       336.182742       355.827692                                              
                                 31          697.915897       336.312999       355.957949                                              
                                 32          698.176410       336.443255       356.088205                                              
                                 33          698.436923       336.573512       356.218462                                              
                                 34          698.697436       336.703768       356.348718                                              
                                 35          698.957949       336.834024       356.478974                                              
                                 36          699.218462       336.964281       356.609231                                              
                                 37          699.478974       337.094537       356.739487                                              
                                 38          699.739487       337.224794       356.869744                                              
                                 39          700.000000       337.355050       357.000000                                              
 444              (3,6,2)        1           690.100513       332.405790       352.050256      03_06_02                                
                                 2           690.361026       332.536046       352.180513                                              
                                 3           690.621538       332.666303       352.310769                                              
                                 4           690.882051       332.796559       352.441026                                              
                                 5           691.142564       332.926815       352.571282                                              
                                 6           691.403077       333.057072       352.701538                                              
                                 7           691.663590       333.187328       352.831795                                              
                                 8           691.924103       333.317585       352.962051                                              
                                 9           692.184615       333.447841       353.092308                                              
                                 10          692.445128       333.578097       353.222564                                              
                                 11          692.705641       333.708354       353.352821                                              
                                 12          692.966154       333.838610       353.483077                                              
                                 13          693.226667       333.968867       353.613333                                              
                                 14          693.487179       334.099123       353.743590                                              
                                 15          693.747692       334.229379       353.873846                                              
                                 16          694.008205       334.359636       354.004103                                              
                                 17          694.268718       334.489892       354.134359                                              
                                 18          694.529231       334.620149       354.264615                                              
                                 19          694.789744       334.750405       354.394872                                              
                                 20          695.050256       334.880661       354.525128                                              
                                 21          695.310769       335.010918       354.655385                                              
                                 22          695.571282       335.141174       354.785641                                              
                                 23          695.831795       335.271431       354.915897                                              
                                 24          696.092308       335.401687       355.046154                                              
                                 25          696.352821       335.531944       355.176410                                              
                                 26          696.613333       335.662200       355.306667                                              
                                 27          696.873846       335.792456       355.436923                                              
                                 28          697.134359       335.922713       355.567179                                              
                                 29          697.394872       336.052969       355.697436                                              
                                 30          697.655385       336.183226       355.827692                                              
                                 31          697.915897       336.313482       355.957949                                              
                                 32          698.176410       336.443738       356.088205                                              
                                 33          698.436923       336.573995       356.218462                                              
                                 34          698.697436       336.704251       356.348718                                              
                                 35          698.957949       336.834508       356.478974                                              
                                 36          699.218462       336.964764       356.609231                                              
                                 37          699.478974       337.095020       356.739487                                              
                                 38          699.739487       337.225277       356.869744                                              
                                 39          700.000000       337.355533       357.000000                                              
 445              (3,6,3)        1           690.100513       332.406473       352.050256      03_06_03                                
                                 2           690.361026       332.536729       352.180513                                              
                                 3           690.621538       332.666986       352.310769                                              
                                 4           690.882051       332.797242       352.441026                                              
                                 5           691.142564       332.927499       352.571282                                              
                                 6           691.403077       333.057755       352.701538                                              
                                 7           691.663590       333.188011       352.831795                                              
                                 8           691.924103       333.318268       352.962051                                              
                                 9           692.184615       333.448524       353.092308                                              
                                 10          692.445128       333.578781       353.222564                                              
                                 11          692.705641       333.709037       353.352821                                              
                                 12          692.966154       333.839293       353.483077                                              
                                 13          693.226667       333.969550       353.613333                                              
                                 14          693.487179       334.099806       353.743590                                              
                                 15          693.747692       334.230063       353.873846                                              
                                 16          694.008205       334.360319       354.004103                                              
                                 17          694.268718       334.490576       354.134359                                              
                                 18          694.529231       334.620832       354.264615                                              
                                 19          694.789744       334.751088       354.394872                                              
                                 20          695.050256       334.881345       354.525128                                              
                                 21          695.310769       335.011601       354.655385                                              
                                 22          695.571282       335.141858       354.785641                                              
                                 23          695.831795       335.272114       354.915897                                              
                                 24          696.092308       335.402370       355.046154                                              
                                 25          696.352821       335.532627       355.176410                                              
                                 26          696.613333       335.662883       355.306667                                              
                                 27          696.873846       335.793140       355.436923                                              
                                 28          697.134359       335.923396       355.567179                                              
                                 29          697.394872       336.053652       355.697436                                              
                                 30          697.655385       336.183909       355.827692                                              
                                 31          697.915897       336.314165       355.957949                                              
                                 32          698.176410       336.444422       356.088205                                              
                                 33          698.436923       336.574678       356.218462                                              
                                 34          698.697436       336.704935       356.348718                                              
                                 35          698.957949       336.835191       356.478974                                              
                                 36          699.218462       336.965447       356.609231                                              
                                 37          699.478974       337.095704       356.739487                                              
                                 38          699.739487       337.225960       356.869744                                              
                                 39          700.000000       337.356217       357.000000                                              
 446              (3,6,4)        1           690.100513       332.407212       352.050256      03_06_04                                
                                 2           690.361026       332.537469       352.180513                                              
                                 3           690.621538       332.667725       352.310769                                              
                                 4           690.882051       332.797982       352.441026                                              
                                 5           691.142564       332.928238       352.571282                                              
                                 6           691.403077       333.058495       352.701538                                              
                                 7           691.663590       333.188751       352.831795                                              
                                 8           691.924103       333.319007       352.962051                                              
                                 9           692.184615       333.449264       353.092308                                              
                                 10          692.445128       333.579520       353.222564                                              
                                 11          692.705641       333.709777       353.352821                                              
                                 12          692.966154       333.840033       353.483077                                              
                                 13          693.226667       333.970289       353.613333                                              
                                 14          693.487179       334.100546       353.743590                                              
                                 15          693.747692       334.230802       353.873846                                              
                                 16          694.008205       334.361059       354.004103                                              
                                 17          694.268718       334.491315       354.134359                                              
                                 18          694.529231       334.621571       354.264615                                              
                                 19          694.789744       334.751828       354.394872                                              
                                 20          695.050256       334.882084       354.525128                                              
                                 21          695.310769       335.012341       354.655385                                              
                                 22          695.571282       335.142597       354.785641                                              
                                 23          695.831795       335.272854       354.915897                                              
                                 24          696.092308       335.403110       355.046154                                              
                                 25          696.352821       335.533366       355.176410                                              
                                 26          696.613333       335.663623       355.306667                                              
                                 27          696.873846       335.793879       355.436923                                              
                                 28          697.134359       335.924136       355.567179                                              
                                 29          697.394872       336.054392       355.697436                                              
                                 30          697.655385       336.184648       355.827692                                              
                                 31          697.915897       336.314905       355.957949                                              
                                 32          698.176410       336.445161       356.088205                                              
                                 33          698.436923       336.575418       356.218462                                              
                                 34          698.697436       336.705674       356.348718                                              
                                 35          698.957949       336.835930       356.478974                                              
                                 36          699.218462       336.966187       356.609231                                              
                                 37          699.478974       337.096443       356.739487                                              
                                 38          699.739487       337.226700       356.869744                                              
                                 39          700.000000       337.356956       357.000000                                              
 447              (3,6,5)        1           690.100513       332.407885       352.050256      03_06_05                                
                                 2           690.361026       332.538142       352.180513                                              
                                 3           690.621538       332.668398       352.310769                                              
                                 4           690.882051       332.798655       352.441026                                              
                                 5           691.142564       332.928911       352.571282                                              
                                 6           691.403077       333.059167       352.701538                                              
                                 7           691.663590       333.189424       352.831795                                              
                                 8           691.924103       333.319680       352.962051                                              
                                 9           692.184615       333.449937       353.092308                                              
                                 10          692.445128       333.580193       353.222564                                              
                                 11          692.705641       333.710449       353.352821                                              
                                 12          692.966154       333.840706       353.483077                                              
                                 13          693.226667       333.970962       353.613333                                              
                                 14          693.487179       334.101219       353.743590                                              
                                 15          693.747692       334.231475       353.873846                                              
                                 16          694.008205       334.361732       354.004103                                              
                                 17          694.268718       334.491988       354.134359                                              
                                 18          694.529231       334.622244       354.264615                                              
                                 19          694.789744       334.752501       354.394872                                              
                                 20          695.050256       334.882757       354.525128                                              
                                 21          695.310769       335.013014       354.655385                                              
                                 22          695.571282       335.143270       354.785641                                              
                                 23          695.831795       335.273526       354.915897                                              
                                 24          696.092308       335.403783       355.046154                                              
                                 25          696.352821       335.534039       355.176410                                              
                                 26          696.613333       335.664296       355.306667                                              
                                 27          696.873846       335.794552       355.436923                                              
                                 28          697.134359       335.924808       355.567179                                              
                                 29          697.394872       336.055065       355.697436                                              
                                 30          697.655385       336.185321       355.827692                                              
                                 31          697.915897       336.315578       355.957949                                              
                                 32          698.176410       336.445834       356.088205                                              
                                 33          698.436923       336.576091       356.218462                                              
                                 34          698.697436       336.706347       356.348718                                              
                                 35          698.957949       336.836603       356.478974                                              
                                 36          699.218462       336.966860       356.609231                                              
                                 37          699.478974       337.097116       356.739487                                              
                                 38          699.739487       337.227373       356.869744                                              
                                 39          700.000000       337.357629       357.000000                                              
 448              (3,6,6)        1           690.100513       332.408393       352.050256      03_06_06                                
                                 2           690.361026       332.538649       352.180513                                              
                                 3           690.621538       332.668906       352.310769                                              
                                 4           690.882051       332.799162       352.441026                                              
                                 5           691.142564       332.929418       352.571282                                              
                                 6           691.403077       333.059675       352.701538                                              
                                 7           691.663590       333.189931       352.831795                                              
                                 8           691.924103       333.320188       352.962051                                              
                                 9           692.184615       333.450444       353.092308                                              
                                 10          692.445128       333.580700       353.222564                                              
                                 11          692.705641       333.710957       353.352821                                              
                                 12          692.966154       333.841213       353.483077                                              
                                 13          693.226667       333.971470       353.613333                                              
                                 14          693.487179       334.101726       353.743590                                              
                                 15          693.747692       334.231982       353.873846                                              
                                 16          694.008205       334.362239       354.004103                                              
                                 17          694.268718       334.492495       354.134359                                              
                                 18          694.529231       334.622752       354.264615                                              
                                 19          694.789744       334.753008       354.394872                                              
                                 20          695.050256       334.883265       354.525128                                              
                                 21          695.310769       335.013521       354.655385                                              
                                 22          695.571282       335.143777       354.785641                                              
                                 23          695.831795       335.274034       354.915897                                              
                                 24          696.092308       335.404290       355.046154                                              
                                 25          696.352821       335.534547       355.176410                                              
                                 26          696.613333       335.664803       355.306667                                              
                                 27          696.873846       335.795059       355.436923                                              
                                 28          697.134359       335.925316       355.567179                                              
                                 29          697.394872       336.055572       355.697436                                              
                                 30          697.655385       336.185829       355.827692                                              
                                 31          697.915897       336.316085       355.957949                                              
                                 32          698.176410       336.446341       356.088205                                              
                                 33          698.436923       336.576598       356.218462                                              
                                 34          698.697436       336.706854       356.348718                                              
                                 35          698.957949       336.837111       356.478974                                              
                                 36          699.218462       336.967367       356.609231                                              
                                 37          699.478974       337.097623       356.739487                                              
                                 38          699.739487       337.227880       356.869744                                              
                                 39          700.000000       337.358136       357.000000                                              
 449              (3,6,7)        1           690.100513       332.408676       352.050256      03_06_07                                
                                 2           690.361026       332.538932       352.180513                                              
                                 3           690.621538       332.669188       352.310769                                              
                                 4           690.882051       332.799445       352.441026                                              
                                 5           691.142564       332.929701       352.571282                                              
                                 6           691.403077       333.059958       352.701538                                              
                                 7           691.663590       333.190214       352.831795                                              
                                 8           691.924103       333.320470       352.962051                                              
                                 9           692.184615       333.450727       353.092308                                              
                                 10          692.445128       333.580983       353.222564                                              
                                 11          692.705641       333.711240       353.352821                                              
                                 12          692.966154       333.841496       353.483077                                              
                                 13          693.226667       333.971752       353.613333                                              
                                 14          693.487179       334.102009       353.743590                                              
                                 15          693.747692       334.232265       353.873846                                              
                                 16          694.008205       334.362522       354.004103                                              
                                 17          694.268718       334.492778       354.134359                                              
                                 18          694.529231       334.623034       354.264615                                              
                                 19          694.789744       334.753291       354.394872                                              
                                 20          695.050256       334.883547       354.525128                                              
                                 21          695.310769       335.013804       354.655385                                              
                                 22          695.571282       335.144060       354.785641                                              
                                 23          695.831795       335.274317       354.915897                                              
                                 24          696.092308       335.404573       355.046154                                              
                                 25          696.352821       335.534829       355.176410                                              
                                 26          696.613333       335.665086       355.306667                                              
                                 27          696.873846       335.795342       355.436923                                              
                                 28          697.134359       335.925599       355.567179                                              
                                 29          697.394872       336.055855       355.697436                                              
                                 30          697.655385       336.186111       355.827692                                              
                                 31          697.915897       336.316368       355.957949                                              
                                 32          698.176410       336.446624       356.088205                                              
                                 33          698.436923       336.576881       356.218462                                              
                                 34          698.697436       336.707137       356.348718                                              
                                 35          698.957949       336.837393       356.478974                                              
                                 36          699.218462       336.967650       356.609231                                              
                                 37          699.478974       337.097906       356.739487                                              
                                 38          699.739487       337.228163       356.869744                                              
                                 39          700.000000       337.358419       357.000000                                              
 450              (3,6,8)        1           690.100513       332.408717       352.050256      03_06_08                                
                                 2           690.361026       332.538973       352.180513                                              
                                 3           690.621538       332.669230       352.310769                                              
                                 4           690.882051       332.799486       352.441026                                              
                                 5           691.142564       332.929743       352.571282                                              
                                 6           691.403077       333.059999       352.701538                                              
                                 7           691.663590       333.190256       352.831795                                              
                                 8           691.924103       333.320512       352.962051                                              
                                 9           692.184615       333.450768       353.092308                                              
                                 10          692.445128       333.581025       353.222564                                              
                                 11          692.705641       333.711281       353.352821                                              
                                 12          692.966154       333.841538       353.483077                                              
                                 13          693.226667       333.971794       353.613333                                              
                                 14          693.487179       334.102050       353.743590                                              
                                 15          693.747692       334.232307       353.873846                                              
                                 16          694.008205       334.362563       354.004103                                              
                                 17          694.268718       334.492820       354.134359                                              
                                 18          694.529231       334.623076       354.264615                                              
                                 19          694.789744       334.753332       354.394872                                              
                                 20          695.050256       334.883589       354.525128                                              
                                 21          695.310769       335.013845       354.655385                                              
                                 22          695.571282       335.144102       354.785641                                              
                                 23          695.831795       335.274358       354.915897                                              
                                 24          696.092308       335.404615       355.046154                                              
                                 25          696.352821       335.534871       355.176410                                              
                                 26          696.613333       335.665127       355.306667                                              
                                 27          696.873846       335.795384       355.436923                                              
                                 28          697.134359       335.925640       355.567179                                              
                                 29          697.394872       336.055897       355.697436                                              
                                 30          697.655385       336.186153       355.827692                                              
                                 31          697.915897       336.316409       355.957949                                              
                                 32          698.176410       336.446666       356.088205                                              
                                 33          698.436923       336.576922       356.218462                                              
                                 34          698.697436       336.707179       356.348718                                              
                                 35          698.957949       336.837435       356.478974                                              
                                 36          699.218462       336.967691       356.609231                                              
                                 37          699.478974       337.097948       356.739487                                              
                                 38          699.739487       337.228204       356.869744                                              
                                 39          700.000000       337.358461       357.000000                                              
 451              (3,6,9)        1           690.100513       332.408536       352.050256      03_06_09                                
                                 2           690.361026       332.538792       352.180513                                              
                                 3           690.621538       332.669048       352.310769                                              
                                 4           690.882051       332.799305       352.441026                                              
                                 5           691.142564       332.929561       352.571282                                              
                                 6           691.403077       333.059818       352.701538                                              
                                 7           691.663590       333.190074       352.831795                                              
                                 8           691.924103       333.320331       352.962051                                              
                                 9           692.184615       333.450587       353.092308                                              
                                 10          692.445128       333.580843       353.222564                                              
                                 11          692.705641       333.711100       353.352821                                              
                                 12          692.966154       333.841356       353.483077                                              
                                 13          693.226667       333.971613       353.613333                                              
                                 14          693.487179       334.101869       353.743590                                              
                                 15          693.747692       334.232125       353.873846                                              
                                 16          694.008205       334.362382       354.004103                                              
                                 17          694.268718       334.492638       354.134359                                              
                                 18          694.529231       334.622895       354.264615                                              
                                 19          694.789744       334.753151       354.394872                                              
                                 20          695.050256       334.883407       354.525128                                              
                                 21          695.310769       335.013664       354.655385                                              
                                 22          695.571282       335.143920       354.785641                                              
                                 23          695.831795       335.274177       354.915897                                              
                                 24          696.092308       335.404433       355.046154                                              
                                 25          696.352821       335.534689       355.176410                                              
                                 26          696.613333       335.664946       355.306667                                              
                                 27          696.873846       335.795202       355.436923                                              
                                 28          697.134359       335.925459       355.567179                                              
                                 29          697.394872       336.055715       355.697436                                              
                                 30          697.655385       336.185972       355.827692                                              
                                 31          697.915897       336.316228       355.957949                                              
                                 32          698.176410       336.446484       356.088205                                              
                                 33          698.436923       336.576741       356.218462                                              
                                 34          698.697436       336.706997       356.348718                                              
                                 35          698.957949       336.837254       356.478974                                              
                                 36          699.218462       336.967510       356.609231                                              
                                 37          699.478974       337.097766       356.739487                                              
                                 38          699.739487       337.228023       356.869744                                              
                                 39          700.000000       337.358279       357.000000                                              
 452              (3,6,10)       1           690.100513       332.408219       352.050256      03_06_10                                
                                 2           690.361026       332.538475       352.180513                                              
                                 3           690.621538       332.668732       352.310769                                              
                                 4           690.882051       332.798988       352.441026                                              
                                 5           691.142564       332.929245       352.571282                                              
                                 6           691.403077       333.059501       352.701538                                              
                                 7           691.663590       333.189757       352.831795                                              
                                 8           691.924103       333.320014       352.962051                                              
                                 9           692.184615       333.450270       353.092308                                              
                                 10          692.445128       333.580527       353.222564                                              
                                 11          692.705641       333.710783       353.352821                                              
                                 12          692.966154       333.841040       353.483077                                              
                                 13          693.226667       333.971296       353.613333                                              
                                 14          693.487179       334.101552       353.743590                                              
                                 15          693.747692       334.231809       353.873846                                              
                                 16          694.008205       334.362065       354.004103                                              
                                 17          694.268718       334.492322       354.134359                                              
                                 18          694.529231       334.622578       354.264615                                              
                                 19          694.789744       334.752834       354.394872                                              
                                 20          695.050256       334.883091       354.525128                                              
                                 21          695.310769       335.013347       354.655385                                              
                                 22          695.571282       335.143604       354.785641                                              
                                 23          695.831795       335.273860       354.915897                                              
                                 24          696.092308       335.404116       355.046154                                              
                                 25          696.352821       335.534373       355.176410                                              
                                 26          696.613333       335.664629       355.306667                                              
                                 27          696.873846       335.794886       355.436923                                              
                                 28          697.134359       335.925142       355.567179                                              
                                 29          697.394872       336.055399       355.697436                                              
                                 30          697.655385       336.185655       355.827692                                              
                                 31          697.915897       336.315911       355.957949                                              
                                 32          698.176410       336.446168       356.088205                                              
                                 33          698.436923       336.576424       356.218462                                              
                                 34          698.697436       336.706681       356.348718                                              
                                 35          698.957949       336.836937       356.478974                                              
                                 36          699.218462       336.967193       356.609231                                              
                                 37          699.478974       337.097450       356.739487                                              
                                 38          699.739487       337.227706       356.869744                                              
                                 39          700.000000       337.357963       357.000000                                              
 453              (3,7,1)        1           690.100513       332.517603       352.050256      03_07_01                                
                                 2           690.361026       332.647860       352.180513                                              
                                 3           690.621538       332.778116       352.310769                                              
                                 4           690.882051       332.908373       352.441026                                              
                                 5           691.142564       333.038629       352.571282                                              
                                 6           691.403077       333.168885       352.701538                                              
                                 7           691.663590       333.299142       352.831795                                              
                                 8           691.924103       333.429398       352.962051                                              
                                 9           692.184615       333.559655       353.092308                                              
                                 10          692.445128       333.689911       353.222564                                              
                                 11          692.705641       333.820167       353.352821                                              
                                 12          692.966154       333.950424       353.483077                                              
                                 13          693.226667       334.080680       353.613333                                              
                                 14          693.487179       334.210937       353.743590                                              
                                 15          693.747692       334.341193       353.873846                                              
                                 16          694.008205       334.471450       354.004103                                              
                                 17          694.268718       334.601706       354.134359                                              
                                 18          694.529231       334.731962       354.264615                                              
                                 19          694.789744       334.862219       354.394872                                              
                                 20          695.050256       334.992475       354.525128                                              
                                 21          695.310769       335.122732       354.655385                                              
                                 22          695.571282       335.252988       354.785641                                              
                                 23          695.831795       335.383244       354.915897                                              
                                 24          696.092308       335.513501       355.046154                                              
                                 25          696.352821       335.643757       355.176410                                              
                                 26          696.613333       335.774014       355.306667                                              
                                 27          696.873846       335.904270       355.436923                                              
                                 28          697.134359       336.034526       355.567179                                              
                                 29          697.394872       336.164783       355.697436                                              
                                 30          697.655385       336.295039       355.827692                                              
                                 31          697.915897       336.425296       355.957949                                              
                                 32          698.176410       336.555552       356.088205                                              
                                 33          698.436923       336.685808       356.218462                                              
                                 34          698.697436       336.816065       356.348718                                              
                                 35          698.957949       336.946321       356.478974                                              
                                 36          699.218462       337.076578       356.609231                                              
                                 37          699.478974       337.206834       356.739487                                              
                                 38          699.739487       337.337091       356.869744                                              
                                 39          700.000000       337.467347       357.000000                                              
 454              (3,7,2)        1           690.100513       332.519849       352.050256      03_07_02                                
                                 2           690.361026       332.650106       352.180513                                              
                                 3           690.621538       332.780362       352.310769                                              
                                 4           690.882051       332.910619       352.441026                                              
                                 5           691.142564       333.040875       352.571282                                              
                                 6           691.403077       333.171131       352.701538                                              
                                 7           691.663590       333.301388       352.831795                                              
                                 8           691.924103       333.431644       352.962051                                              
                                 9           692.184615       333.561901       353.092308                                              
                                 10          692.445128       333.692157       353.222564                                              
                                 11          692.705641       333.822413       353.352821                                              
                                 12          692.966154       333.952670       353.483077                                              
                                 13          693.226667       334.082926       353.613333                                              
                                 14          693.487179       334.213183       353.743590                                              
                                 15          693.747692       334.343439       353.873846                                              
                                 16          694.008205       334.473696       354.004103                                              
                                 17          694.268718       334.603952       354.134359                                              
                                 18          694.529231       334.734208       354.264615                                              
                                 19          694.789744       334.864465       354.394872                                              
                                 20          695.050256       334.994721       354.525128                                              
                                 21          695.310769       335.124978       354.655385                                              
                                 22          695.571282       335.255234       354.785641                                              
                                 23          695.831795       335.385490       354.915897                                              
                                 24          696.092308       335.515747       355.046154                                              
                                 25          696.352821       335.646003       355.176410                                              
                                 26          696.613333       335.776260       355.306667                                              
                                 27          696.873846       335.906516       355.436923                                              
                                 28          697.134359       336.036772       355.567179                                              
                                 29          697.394872       336.167029       355.697436                                              
                                 30          697.655385       336.297285       355.827692                                              
                                 31          697.915897       336.427542       355.957949                                              
                                 32          698.176410       336.557798       356.088205                                              
                                 33          698.436923       336.688054       356.218462                                              
                                 34          698.697436       336.818311       356.348718                                              
                                 35          698.957949       336.948567       356.478974                                              
                                 36          699.218462       337.078824       356.609231                                              
                                 37          699.478974       337.209080       356.739487                                              
                                 38          699.739487       337.339337       356.869744                                              
                                 39          700.000000       337.469593       357.000000                                              
 455              (3,7,3)        1           690.100513       332.521980       352.050256      03_07_03                                
                                 2           690.361026       332.652236       352.180513                                              
                                 3           690.621538       332.782493       352.310769                                              
                                 4           690.882051       332.912749       352.441026                                              
                                 5           691.142564       333.043005       352.571282                                              
                                 6           691.403077       333.173262       352.701538                                              
                                 7           691.663590       333.303518       352.831795                                              
                                 8           691.924103       333.433775       352.962051                                              
                                 9           692.184615       333.564031       353.092308                                              
                                 10          692.445128       333.694287       353.222564                                              
                                 11          692.705641       333.824544       353.352821                                              
                                 12          692.966154       333.954800       353.483077                                              
                                 13          693.226667       334.085057       353.613333                                              
                                 14          693.487179       334.215313       353.743590                                              
                                 15          693.747692       334.345570       353.873846                                              
                                 16          694.008205       334.475826       354.004103                                              
                                 17          694.268718       334.606082       354.134359                                              
                                 18          694.529231       334.736339       354.264615                                              
                                 19          694.789744       334.866595       354.394872                                              
                                 20          695.050256       334.996852       354.525128                                              
                                 21          695.310769       335.127108       354.655385                                              
                                 22          695.571282       335.257364       354.785641                                              
                                 23          695.831795       335.387621       354.915897                                              
                                 24          696.092308       335.517877       355.046154                                              
                                 25          696.352821       335.648134       355.176410                                              
                                 26          696.613333       335.778390       355.306667                                              
                                 27          696.873846       335.908646       355.436923                                              
                                 28          697.134359       336.038903       355.567179                                              
                                 29          697.394872       336.169159       355.697436                                              
                                 30          697.655385       336.299416       355.827692                                              
                                 31          697.915897       336.429672       355.957949                                              
                                 32          698.176410       336.559928       356.088205                                              
                                 33          698.436923       336.690185       356.218462                                              
                                 34          698.697436       336.820441       356.348718                                              
                                 35          698.957949       336.950698       356.478974                                              
                                 36          699.218462       337.080954       356.609231                                              
                                 37          699.478974       337.211211       356.739487                                              
                                 38          699.739487       337.341467       356.869744                                              
                                 39          700.000000       337.471723       357.000000                                              
 456              (3,7,4)        1           690.100513       332.523607       352.050256      03_07_04                                
                                 2           690.361026       332.653863       352.180513                                              
                                 3           690.621538       332.784120       352.310769                                              
                                 4           690.882051       332.914376       352.441026                                              
                                 5           691.142564       333.044633       352.571282                                              
                                 6           691.403077       333.174889       352.701538                                              
                                 7           691.663590       333.305145       352.831795                                              
                                 8           691.924103       333.435402       352.962051                                              
                                 9           692.184615       333.565658       353.092308                                              
                                 10          692.445128       333.695915       353.222564                                              
                                 11          692.705641       333.826171       353.352821                                              
                                 12          692.966154       333.956427       353.483077                                              
                                 13          693.226667       334.086684       353.613333                                              
                                 14          693.487179       334.216940       353.743590                                              
                                 15          693.747692       334.347197       353.873846                                              
                                 16          694.008205       334.477453       354.004103                                              
                                 17          694.268718       334.607709       354.134359                                              
                                 18          694.529231       334.737966       354.264615                                              
                                 19          694.789744       334.868222       354.394872                                              
                                 20          695.050256       334.998479       354.525128                                              
                                 21          695.310769       335.128735       354.655385                                              
                                 22          695.571282       335.258992       354.785641                                              
                                 23          695.831795       335.389248       354.915897                                              
                                 24          696.092308       335.519504       355.046154                                              
                                 25          696.352821       335.649761       355.176410                                              
                                 26          696.613333       335.780017       355.306667                                              
                                 27          696.873846       335.910274       355.436923                                              
                                 28          697.134359       336.040530       355.567179                                              
                                 29          697.394872       336.170786       355.697436                                              
                                 30          697.655385       336.301043       355.827692                                              
                                 31          697.915897       336.431299       355.957949                                              
                                 32          698.176410       336.561556       356.088205                                              
                                 33          698.436923       336.691812       356.218462                                              
                                 34          698.697436       336.822068       356.348718                                              
                                 35          698.957949       336.952325       356.478974                                              
                                 36          699.218462       337.082581       356.609231                                              
                                 37          699.478974       337.212838       356.739487                                              
                                 38          699.739487       337.343094       356.869744                                              
                                 39          700.000000       337.473350       357.000000                                              
 457              (3,7,5)        1           690.100513       332.524636       352.050256      03_07_05                                
                                 2           690.361026       332.654892       352.180513                                              
                                 3           690.621538       332.785148       352.310769                                              
                                 4           690.882051       332.915405       352.441026                                              
                                 5           691.142564       333.045661       352.571282                                              
                                 6           691.403077       333.175918       352.701538                                              
                                 7           691.663590       333.306174       352.831795                                              
                                 8           691.924103       333.436430       352.962051                                              
                                 9           692.184615       333.566687       353.092308                                              
                                 10          692.445128       333.696943       353.222564                                              
                                 11          692.705641       333.827200       353.352821                                              
                                 12          692.966154       333.957456       353.483077                                              
                                 13          693.226667       334.087712       353.613333                                              
                                 14          693.487179       334.217969       353.743590                                              
                                 15          693.747692       334.348225       353.873846                                              
                                 16          694.008205       334.478482       354.004103                                              
                                 17          694.268718       334.608738       354.134359                                              
                                 18          694.529231       334.738995       354.264615                                              
                                 19          694.789744       334.869251       354.394872                                              
                                 20          695.050256       334.999507       354.525128                                              
                                 21          695.310769       335.129764       354.655385                                              
                                 22          695.571282       335.260020       354.785641                                              
                                 23          695.831795       335.390277       354.915897                                              
                                 24          696.092308       335.520533       355.046154                                              
                                 25          696.352821       335.650789       355.176410                                              
                                 26          696.613333       335.781046       355.306667                                              
                                 27          696.873846       335.911302       355.436923                                              
                                 28          697.134359       336.041559       355.567179                                              
                                 29          697.394872       336.171815       355.697436                                              
                                 30          697.655385       336.302071       355.827692                                              
                                 31          697.915897       336.432328       355.957949                                              
                                 32          698.176410       336.562584       356.088205                                              
                                 33          698.436923       336.692841       356.218462                                              
                                 34          698.697436       336.823097       356.348718                                              
                                 35          698.957949       336.953353       356.478974                                              
                                 36          699.218462       337.083610       356.609231                                              
                                 37          699.478974       337.213866       356.739487                                              
                                 38          699.739487       337.344123       356.869744                                              
                                 39          700.000000       337.474379       357.000000                                              
 458              (3,7,6)        1           690.100513       332.524999       352.050256      03_07_06                                
                                 2           690.361026       332.655256       352.180513                                              
                                 3           690.621538       332.785512       352.310769                                              
                                 4           690.882051       332.915769       352.441026                                              
                                 5           691.142564       333.046025       352.571282                                              
                                 6           691.403077       333.176281       352.701538                                              
                                 7           691.663590       333.306538       352.831795                                              
                                 8           691.924103       333.436794       352.962051                                              
                                 9           692.184615       333.567051       353.092308                                              
                                 10          692.445128       333.697307       353.222564                                              
                                 11          692.705641       333.827563       353.352821                                              
                                 12          692.966154       333.957820       353.483077                                              
                                 13          693.226667       334.088076       353.613333                                              
                                 14          693.487179       334.218333       353.743590                                              
                                 15          693.747692       334.348589       353.873846                                              
                                 16          694.008205       334.478845       354.004103                                              
                                 17          694.268718       334.609102       354.134359                                              
                                 18          694.529231       334.739358       354.264615                                              
                                 19          694.789744       334.869615       354.394872                                              
                                 20          695.050256       334.999871       354.525128                                              
                                 21          695.310769       335.130128       354.655385                                              
                                 22          695.571282       335.260384       354.785641                                              
                                 23          695.831795       335.390640       354.915897                                              
                                 24          696.092308       335.520897       355.046154                                              
                                 25          696.352821       335.651153       355.176410                                              
                                 26          696.613333       335.781410       355.306667                                              
                                 27          696.873846       335.911666       355.436923                                              
                                 28          697.134359       336.041922       355.567179                                              
                                 29          697.394872       336.172179       355.697436                                              
                                 30          697.655385       336.302435       355.827692                                              
                                 31          697.915897       336.432692       355.957949                                              
                                 32          698.176410       336.562948       356.088205                                              
                                 33          698.436923       336.693204       356.218462                                              
                                 34          698.697436       336.823461       356.348718                                              
                                 35          698.957949       336.953717       356.478974                                              
                                 36          699.218462       337.083974       356.609231                                              
                                 37          699.478974       337.214230       356.739487                                              
                                 38          699.739487       337.344487       356.869744                                              
                                 39          700.000000       337.474743       357.000000                                              
 459              (3,7,7)        1           690.100513       332.524658       352.050256      03_07_07                                
                                 2           690.361026       332.654914       352.180513                                              
                                 3           690.621538       332.785171       352.310769                                              
                                 4           690.882051       332.915427       352.441026                                              
                                 5           691.142564       333.045684       352.571282                                              
                                 6           691.403077       333.175940       352.701538                                              
                                 7           691.663590       333.306196       352.831795                                              
                                 8           691.924103       333.436453       352.962051                                              
                                 9           692.184615       333.566709       353.092308                                              
                                 10          692.445128       333.696966       353.222564                                              
                                 11          692.705641       333.827222       353.352821                                              
                                 12          692.966154       333.957479       353.483077                                              
                                 13          693.226667       334.087735       353.613333                                              
                                 14          693.487179       334.217991       353.743590                                              
                                 15          693.747692       334.348248       353.873846                                              
                                 16          694.008205       334.478504       354.004103                                              
                                 17          694.268718       334.608761       354.134359                                              
                                 18          694.529231       334.739017       354.264615                                              
                                 19          694.789744       334.869273       354.394872                                              
                                 20          695.050256       334.999530       354.525128                                              
                                 21          695.310769       335.129786       354.655385                                              
                                 22          695.571282       335.260043       354.785641                                              
                                 23          695.831795       335.390299       354.915897                                              
                                 24          696.092308       335.520555       355.046154                                              
                                 25          696.352821       335.650812       355.176410                                              
                                 26          696.613333       335.781068       355.306667                                              
                                 27          696.873846       335.911325       355.436923                                              
                                 28          697.134359       336.041581       355.567179                                              
                                 29          697.394872       336.171838       355.697436                                              
                                 30          697.655385       336.302094       355.827692                                              
                                 31          697.915897       336.432350       355.957949                                              
                                 32          698.176410       336.562607       356.088205                                              
                                 33          698.436923       336.692863       356.218462                                              
                                 34          698.697436       336.823120       356.348718                                              
                                 35          698.957949       336.953376       356.478974                                              
                                 36          699.218462       337.083632       356.609231                                              
                                 37          699.478974       337.213889       356.739487                                              
                                 38          699.739487       337.344145       356.869744                                              
                                 39          700.000000       337.474402       357.000000                                              
 460              (3,7,8)        1           690.100513       332.523601       352.050256      03_07_08                                
                                 2           690.361026       332.653858       352.180513                                              
                                 3           690.621538       332.784114       352.310769                                              
                                 4           690.882051       332.914370       352.441026                                              
                                 5           691.142564       333.044627       352.571282                                              
                                 6           691.403077       333.174883       352.701538                                              
                                 7           691.663590       333.305140       352.831795                                              
                                 8           691.924103       333.435396       352.962051                                              
                                 9           692.184615       333.565652       353.092308                                              
                                 10          692.445128       333.695909       353.222564                                              
                                 11          692.705641       333.826165       353.352821                                              
                                 12          692.966154       333.956422       353.483077                                              
                                 13          693.226667       334.086678       353.613333                                              
                                 14          693.487179       334.216934       353.743590                                              
                                 15          693.747692       334.347191       353.873846                                              
                                 16          694.008205       334.477447       354.004103                                              
                                 17          694.268718       334.607704       354.134359                                              
                                 18          694.529231       334.737960       354.264615                                              
                                 19          694.789744       334.868217       354.394872                                              
                                 20          695.050256       334.998473       354.525128                                              
                                 21          695.310769       335.128729       354.655385                                              
                                 22          695.571282       335.258986       354.785641                                              
                                 23          695.831795       335.389242       354.915897                                              
                                 24          696.092308       335.519499       355.046154                                              
                                 25          696.352821       335.649755       355.176410                                              
                                 26          696.613333       335.780011       355.306667                                              
                                 27          696.873846       335.910268       355.436923                                              
                                 28          697.134359       336.040524       355.567179                                              
                                 29          697.394872       336.170781       355.697436                                              
                                 30          697.655385       336.301037       355.827692                                              
                                 31          697.915897       336.431293       355.957949                                              
                                 32          698.176410       336.561550       356.088205                                              
                                 33          698.436923       336.691806       356.218462                                              
                                 34          698.697436       336.822063       356.348718                                              
                                 35          698.957949       336.952319       356.478974                                              
                                 36          699.218462       337.082575       356.609231                                              
                                 37          699.478974       337.212832       356.739487                                              
                                 38          699.739487       337.343088       356.869744                                              
                                 39          700.000000       337.473345       357.000000                                              
 461              (3,7,9)        1           690.100513       332.521859       352.050256      03_07_09                                
                                 2           690.361026       332.652115       352.180513                                              
                                 3           690.621538       332.782372       352.310769                                              
                                 4           690.882051       332.912628       352.441026                                              
                                 5           691.142564       333.042884       352.571282                                              
                                 6           691.403077       333.173141       352.701538                                              
                                 7           691.663590       333.303397       352.831795                                              
                                 8           691.924103       333.433654       352.962051                                              
                                 9           692.184615       333.563910       353.092308                                              
                                 10          692.445128       333.694167       353.222564                                              
                                 11          692.705641       333.824423       353.352821                                              
                                 12          692.966154       333.954679       353.483077                                              
                                 13          693.226667       334.084936       353.613333                                              
                                 14          693.487179       334.215192       353.743590                                              
                                 15          693.747692       334.345449       353.873846                                              
                                 16          694.008205       334.475705       354.004103                                              
                                 17          694.268718       334.605961       354.134359                                              
                                 18          694.529231       334.736218       354.264615                                              
                                 19          694.789744       334.866474       354.394872                                              
                                 20          695.050256       334.996731       354.525128                                              
                                 21          695.310769       335.126987       354.655385                                              
                                 22          695.571282       335.257243       354.785641                                              
                                 23          695.831795       335.387500       354.915897                                              
                                 24          696.092308       335.517756       355.046154                                              
                                 25          696.352821       335.648013       355.176410                                              
                                 26          696.613333       335.778269       355.306667                                              
                                 27          696.873846       335.908526       355.436923                                              
                                 28          697.134359       336.038782       355.567179                                              
                                 29          697.394872       336.169038       355.697436                                              
                                 30          697.655385       336.299295       355.827692                                              
                                 31          697.915897       336.429551       355.957949                                              
                                 32          698.176410       336.559808       356.088205                                              
                                 33          698.436923       336.690064       356.218462                                              
                                 34          698.697436       336.820320       356.348718                                              
                                 35          698.957949       336.950577       356.478974                                              
                                 36          699.218462       337.080833       356.609231                                              
                                 37          699.478974       337.211090       356.739487                                              
                                 38          699.739487       337.341346       356.869744                                              
                                 39          700.000000       337.471602       357.000000                                              
 462              (3,7,10)       1           690.100513       332.519782       352.050256      03_07_10                                
                                 2           690.361026       332.650039       352.180513                                              
                                 3           690.621538       332.780295       352.310769                                              
                                 4           690.882051       332.910551       352.441026                                              
                                 5           691.142564       333.040808       352.571282                                              
                                 6           691.403077       333.171064       352.701538                                              
                                 7           691.663590       333.301321       352.831795                                              
                                 8           691.924103       333.431577       352.962051                                              
                                 9           692.184615       333.561833       353.092308                                              
                                 10          692.445128       333.692090       353.222564                                              
                                 11          692.705641       333.822346       353.352821                                              
                                 12          692.966154       333.952603       353.483077                                              
                                 13          693.226667       334.082859       353.613333                                              
                                 14          693.487179       334.213115       353.743590                                              
                                 15          693.747692       334.343372       353.873846                                              
                                 16          694.008205       334.473628       354.004103                                              
                                 17          694.268718       334.603885       354.134359                                              
                                 18          694.529231       334.734141       354.264615                                              
                                 19          694.789744       334.864398       354.394872                                              
                                 20          695.050256       334.994654       354.525128                                              
                                 21          695.310769       335.124910       354.655385                                              
                                 22          695.571282       335.255167       354.785641                                              
                                 23          695.831795       335.385423       354.915897                                              
                                 24          696.092308       335.515680       355.046154                                              
                                 25          696.352821       335.645936       355.176410                                              
                                 26          696.613333       335.776192       355.306667                                              
                                 27          696.873846       335.906449       355.436923                                              
                                 28          697.134359       336.036705       355.567179                                              
                                 29          697.394872       336.166962       355.697436                                              
                                 30          697.655385       336.297218       355.827692                                              
                                 31          697.915897       336.427474       355.957949                                              
                                 32          698.176410       336.557731       356.088205                                              
                                 33          698.436923       336.687987       356.218462                                              
                                 34          698.697436       336.818244       356.348718                                              
                                 35          698.957949       336.948500       356.478974                                              
                                 36          699.218462       337.078757       356.609231                                              
                                 37          699.478974       337.209013       356.739487                                              
                                 38          699.739487       337.339269       356.869744                                              
                                 39          700.000000       337.469526       357.000000                                              
 463              (3,8,1)        1           690.100513       332.612791       352.050256      03_08_01                                
                                 2           690.361026       332.743047       352.180513                                              
                                 3           690.621538       332.873304       352.310769                                              
                                 4           690.882051       333.003560       352.441026                                              
                                 5           691.142564       333.133816       352.571282                                              
                                 6           691.403077       333.264073       352.701538                                              
                                 7           691.663590       333.394329       352.831795                                              
                                 8           691.924103       333.524586       352.962051                                              
                                 9           692.184615       333.654842       353.092308                                              
                                 10          692.445128       333.785098       353.222564                                              
                                 11          692.705641       333.915355       353.352821                                              
                                 12          692.966154       334.045611       353.483077                                              
                                 13          693.226667       334.175868       353.613333                                              
                                 14          693.487179       334.306124       353.743590                                              
                                 15          693.747692       334.436381       353.873846                                              
                                 16          694.008205       334.566637       354.004103                                              
                                 17          694.268718       334.696893       354.134359                                              
                                 18          694.529231       334.827150       354.264615                                              
                                 19          694.789744       334.957406       354.394872                                              
                                 20          695.050256       335.087663       354.525128                                              
                                 21          695.310769       335.217919       354.655385                                              
                                 22          695.571282       335.348175       354.785641                                              
                                 23          695.831795       335.478432       354.915897                                              
                                 24          696.092308       335.608688       355.046154                                              
                                 25          696.352821       335.738945       355.176410                                              
                                 26          696.613333       335.869201       355.306667                                              
                                 27          696.873846       335.999457       355.436923                                              
                                 28          697.134359       336.129714       355.567179                                              
                                 29          697.394872       336.259970       355.697436                                              
                                 30          697.655385       336.390227       355.827692                                              
                                 31          697.915897       336.520483       355.957949                                              
                                 32          698.176410       336.650739       356.088205                                              
                                 33          698.436923       336.780996       356.218462                                              
                                 34          698.697436       336.911252       356.348718                                              
                                 35          698.957949       337.041509       356.478974                                              
                                 36          699.218462       337.171765       356.609231                                              
                                 37          699.478974       337.302022       356.739487                                              
                                 38          699.739487       337.432278       356.869744                                              
                                 39          700.000000       337.562534       357.000000                                              
 464              (3,8,2)        1           690.100513       332.616654       352.050256      03_08_02                                
                                 2           690.361026       332.746910       352.180513                                              
                                 3           690.621538       332.877167       352.310769                                              
                                 4           690.882051       333.007423       352.441026                                              
                                 5           691.142564       333.137680       352.571282                                              
                                 6           691.403077       333.267936       352.701538                                              
                                 7           691.663590       333.398192       352.831795                                              
                                 8           691.924103       333.528449       352.962051                                              
                                 9           692.184615       333.658705       353.092308                                              
                                 10          692.445128       333.788962       353.222564                                              
                                 11          692.705641       333.919218       353.352821                                              
                                 12          692.966154       334.049474       353.483077                                              
                                 13          693.226667       334.179731       353.613333                                              
                                 14          693.487179       334.309987       353.743590                                              
                                 15          693.747692       334.440244       353.873846                                              
                                 16          694.008205       334.570500       354.004103                                              
                                 17          694.268718       334.700757       354.134359                                              
                                 18          694.529231       334.831013       354.264615                                              
                                 19          694.789744       334.961269       354.394872                                              
                                 20          695.050256       335.091526       354.525128                                              
                                 21          695.310769       335.221782       354.655385                                              
                                 22          695.571282       335.352039       354.785641                                              
                                 23          695.831795       335.482295       354.915897                                              
                                 24          696.092308       335.612551       355.046154                                              
                                 25          696.352821       335.742808       355.176410                                              
                                 26          696.613333       335.873064       355.306667                                              
                                 27          696.873846       336.003321       355.436923                                              
                                 28          697.134359       336.133577       355.567179                                              
                                 29          697.394872       336.263833       355.697436                                              
                                 30          697.655385       336.394090       355.827692                                              
                                 31          697.915897       336.524346       355.957949                                              
                                 32          698.176410       336.654603       356.088205                                              
                                 33          698.436923       336.784859       356.218462                                              
                                 34          698.697436       336.915115       356.348718                                              
                                 35          698.957949       337.045372       356.478974                                              
                                 36          699.218462       337.175628       356.609231                                              
                                 37          699.478974       337.305885       356.739487                                              
                                 38          699.739487       337.436141       356.869744                                              
                                 39          700.000000       337.566398       357.000000                                              
 465              (3,8,3)        1           690.100513       332.620125       352.050256      03_08_03                                
                                 2           690.361026       332.750382       352.180513                                              
                                 3           690.621538       332.880638       352.310769                                              
                                 4           690.882051       333.010894       352.441026                                              
                                 5           691.142564       333.141151       352.571282                                              
                                 6           691.403077       333.271407       352.701538                                              
                                 7           691.663590       333.401664       352.831795                                              
                                 8           691.924103       333.531920       352.962051                                              
                                 9           692.184615       333.662177       353.092308                                              
                                 10          692.445128       333.792433       353.222564                                              
                                 11          692.705641       333.922689       353.352821                                              
                                 12          692.966154       334.052946       353.483077                                              
                                 13          693.226667       334.183202       353.613333                                              
                                 14          693.487179       334.313459       353.743590                                              
                                 15          693.747692       334.443715       353.873846                                              
                                 16          694.008205       334.573971       354.004103                                              
                                 17          694.268718       334.704228       354.134359                                              
                                 18          694.529231       334.834484       354.264615                                              
                                 19          694.789744       334.964741       354.394872                                              
                                 20          695.050256       335.094997       354.525128                                              
                                 21          695.310769       335.225253       354.655385                                              
                                 22          695.571282       335.355510       354.785641                                              
                                 23          695.831795       335.485766       354.915897                                              
                                 24          696.092308       335.616023       355.046154                                              
                                 25          696.352821       335.746279       355.176410                                              
                                 26          696.613333       335.876535       355.306667                                              
                                 27          696.873846       336.006792       355.436923                                              
                                 28          697.134359       336.137048       355.567179                                              
                                 29          697.394872       336.267305       355.697436                                              
                                 30          697.655385       336.397561       355.827692                                              
                                 31          697.915897       336.527818       355.957949                                              
                                 32          698.176410       336.658074       356.088205                                              
                                 33          698.436923       336.788330       356.218462                                              
                                 34          698.697436       336.918587       356.348718                                              
                                 35          698.957949       337.048843       356.478974                                              
                                 36          699.218462       337.179100       356.609231                                              
                                 37          699.478974       337.309356       356.739487                                              
                                 38          699.739487       337.439612       356.869744                                              
                                 39          700.000000       337.569869       357.000000                                              
 466              (3,8,4)        1           690.100513       332.622604       352.050256      03_08_04                                
                                 2           690.361026       332.752861       352.180513                                              
                                 3           690.621538       332.883117       352.310769                                              
                                 4           690.882051       333.013374       352.441026                                              
                                 5           691.142564       333.143630       352.571282                                              
                                 6           691.403077       333.273886       352.701538                                              
                                 7           691.663590       333.404143       352.831795                                              
                                 8           691.924103       333.534399       352.962051                                              
                                 9           692.184615       333.664656       353.092308                                              
                                 10          692.445128       333.794912       353.222564                                              
                                 11          692.705641       333.925168       353.352821                                              
                                 12          692.966154       334.055425       353.483077                                              
                                 13          693.226667       334.185681       353.613333                                              
                                 14          693.487179       334.315938       353.743590                                              
                                 15          693.747692       334.446194       353.873846                                              
                                 16          694.008205       334.576450       354.004103                                              
                                 17          694.268718       334.706707       354.134359                                              
                                 18          694.529231       334.836963       354.264615                                              
                                 19          694.789744       334.967220       354.394872                                              
                                 20          695.050256       335.097476       354.525128                                              
                                 21          695.310769       335.227732       354.655385                                              
                                 22          695.571282       335.357989       354.785641                                              
                                 23          695.831795       335.488245       354.915897                                              
                                 24          696.092308       335.618502       355.046154                                              
                                 25          696.352821       335.748758       355.176410                                              
                                 26          696.613333       335.879015       355.306667                                              
                                 27          696.873846       336.009271       355.436923                                              
                                 28          697.134359       336.139527       355.567179                                              
                                 29          697.394872       336.269784       355.697436                                              
                                 30          697.655385       336.400040       355.827692                                              
                                 31          697.915897       336.530297       355.957949                                              
                                 32          698.176410       336.660553       356.088205                                              
                                 33          698.436923       336.790809       356.218462                                              
                                 34          698.697436       336.921066       356.348718                                              
                                 35          698.957949       337.051322       356.478974                                              
                                 36          699.218462       337.181579       356.609231                                              
                                 37          699.478974       337.311835       356.739487                                              
                                 38          699.739487       337.442091       356.869744                                              
                                 39          700.000000       337.572348       357.000000                                              
 467              (3,8,5)        1           690.100513       332.623997       352.050256      03_08_05                                
                                 2           690.361026       332.754254       352.180513                                              
                                 3           690.621538       332.884510       352.310769                                              
                                 4           690.882051       333.014767       352.441026                                              
                                 5           691.142564       333.145023       352.571282                                              
                                 6           691.403077       333.275279       352.701538                                              
                                 7           691.663590       333.405536       352.831795                                              
                                 8           691.924103       333.535792       352.962051                                              
                                 9           692.184615       333.666049       353.092308                                              
                                 10          692.445128       333.796305       353.222564                                              
                                 11          692.705641       333.926561       353.352821                                              
                                 12          692.966154       334.056818       353.483077                                              
                                 13          693.226667       334.187074       353.613333                                              
                                 14          693.487179       334.317331       353.743590                                              
                                 15          693.747692       334.447587       353.873846                                              
                                 16          694.008205       334.577843       354.004103                                              
                                 17          694.268718       334.708100       354.134359                                              
                                 18          694.529231       334.838356       354.264615                                              
                                 19          694.789744       334.968613       354.394872                                              
                                 20          695.050256       335.098869       354.525128                                              
                                 21          695.310769       335.229126       354.655385                                              
                                 22          695.571282       335.359382       354.785641                                              
                                 23          695.831795       335.489638       354.915897                                              
                                 24          696.092308       335.619895       355.046154                                              
                                 25          696.352821       335.750151       355.176410                                              
                                 26          696.613333       335.880408       355.306667                                              
                                 27          696.873846       336.010664       355.436923                                              
                                 28          697.134359       336.140920       355.567179                                              
                                 29          697.394872       336.271177       355.697436                                              
                                 30          697.655385       336.401433       355.827692                                              
                                 31          697.915897       336.531690       355.957949                                              
                                 32          698.176410       336.661946       356.088205                                              
                                 33          698.436923       336.792202       356.218462                                              
                                 34          698.697436       336.922459       356.348718                                              
                                 35          698.957949       337.052715       356.478974                                              
                                 36          699.218462       337.182972       356.609231                                              
                                 37          699.478974       337.313228       356.739487                                              
                                 38          699.739487       337.443484       356.869744                                              
                                 39          700.000000       337.573741       357.000000                                              
 468              (3,8,6)        1           690.100513       332.624252       352.050256      03_08_06                                
                                 2           690.361026       332.754508       352.180513                                              
                                 3           690.621538       332.884765       352.310769                                              
                                 4           690.882051       333.015021       352.441026                                              
                                 5           691.142564       333.145277       352.571282                                              
                                 6           691.403077       333.275534       352.701538                                              
                                 7           691.663590       333.405790       352.831795                                              
                                 8           691.924103       333.536047       352.962051                                              
                                 9           692.184615       333.666303       353.092308                                              
                                 10          692.445128       333.796559       353.222564                                              
                                 11          692.705641       333.926816       353.352821                                              
                                 12          692.966154       334.057072       353.483077                                              
                                 13          693.226667       334.187329       353.613333                                              
                                 14          693.487179       334.317585       353.743590                                              
                                 15          693.747692       334.447842       353.873846                                              
                                 16          694.008205       334.578098       354.004103                                              
                                 17          694.268718       334.708354       354.134359                                              
                                 18          694.529231       334.838611       354.264615                                              
                                 19          694.789744       334.968867       354.394872                                              
                                 20          695.050256       335.099124       354.525128                                              
                                 21          695.310769       335.229380       354.655385                                              
                                 22          695.571282       335.359636       354.785641                                              
                                 23          695.831795       335.489893       354.915897                                              
                                 24          696.092308       335.620149       355.046154                                              
                                 25          696.352821       335.750406       355.176410                                              
                                 26          696.613333       335.880662       355.306667                                              
                                 27          696.873846       336.010918       355.436923                                              
                                 28          697.134359       336.141175       355.567179                                              
                                 29          697.394872       336.271431       355.697436                                              
                                 30          697.655385       336.401688       355.827692                                              
                                 31          697.915897       336.531944       355.957949                                              
                                 32          698.176410       336.662200       356.088205                                              
                                 33          698.436923       336.792457       356.218462                                              
                                 34          698.697436       336.922713       356.348718                                              
                                 35          698.957949       337.052970       356.478974                                              
                                 36          699.218462       337.183226       356.609231                                              
                                 37          699.478974       337.313483       356.739487                                              
                                 38          699.739487       337.443739       356.869744                                              
                                 39          700.000000       337.573995       357.000000                                              
 469              (3,8,7)        1           690.100513       332.623342       352.050256      03_08_07                                
                                 2           690.361026       332.753598       352.180513                                              
                                 3           690.621538       332.883854       352.310769                                              
                                 4           690.882051       333.014111       352.441026                                              
                                 5           691.142564       333.144367       352.571282                                              
                                 6           691.403077       333.274624       352.701538                                              
                                 7           691.663590       333.404880       352.831795                                              
                                 8           691.924103       333.535136       352.962051                                              
                                 9           692.184615       333.665393       353.092308                                              
                                 10          692.445128       333.795649       353.222564                                              
                                 11          692.705641       333.925906       353.352821                                              
                                 12          692.966154       334.056162       353.483077                                              
                                 13          693.226667       334.186418       353.613333                                              
                                 14          693.487179       334.316675       353.743590                                              
                                 15          693.747692       334.446931       353.873846                                              
                                 16          694.008205       334.577188       354.004103                                              
                                 17          694.268718       334.707444       354.134359                                              
                                 18          694.529231       334.837701       354.264615                                              
                                 19          694.789744       334.967957       354.394872                                              
                                 20          695.050256       335.098213       354.525128                                              
                                 21          695.310769       335.228470       354.655385                                              
                                 22          695.571282       335.358726       354.785641                                              
                                 23          695.831795       335.488983       354.915897                                              
                                 24          696.092308       335.619239       355.046154                                              
                                 25          696.352821       335.749495       355.176410                                              
                                 26          696.613333       335.879752       355.306667                                              
                                 27          696.873846       336.010008       355.436923                                              
                                 28          697.134359       336.140265       355.567179                                              
                                 29          697.394872       336.270521       355.697436                                              
                                 30          697.655385       336.400777       355.827692                                              
                                 31          697.915897       336.531034       355.957949                                              
                                 32          698.176410       336.661290       356.088205                                              
                                 33          698.436923       336.791547       356.218462                                              
                                 34          698.697436       336.921803       356.348718                                              
                                 35          698.957949       337.052059       356.478974                                              
                                 36          699.218462       337.182316       356.609231                                              
                                 37          699.478974       337.312572       356.739487                                              
                                 38          699.739487       337.442829       356.869744                                              
                                 39          700.000000       337.573085       357.000000                                              
 470              (3,8,8)        1           690.100513       332.621270       352.050256      03_08_08                                
                                 2           690.361026       332.751526       352.180513                                              
                                 3           690.621538       332.881783       352.310769                                              
                                 4           690.882051       333.012039       352.441026                                              
                                 5           691.142564       333.142295       352.571282                                              
                                 6           691.403077       333.272552       352.701538                                              
                                 7           691.663590       333.402808       352.831795                                              
                                 8           691.924103       333.533065       352.962051                                              
                                 9           692.184615       333.663321       353.092308                                              
                                 10          692.445128       333.793577       353.222564                                              
                                 11          692.705641       333.923834       353.352821                                              
                                 12          692.966154       334.054090       353.483077                                              
                                 13          693.226667       334.184347       353.613333                                              
                                 14          693.487179       334.314603       353.743590                                              
                                 15          693.747692       334.444859       353.873846                                              
                                 16          694.008205       334.575116       354.004103                                              
                                 17          694.268718       334.705372       354.134359                                              
                                 18          694.529231       334.835629       354.264615                                              
                                 19          694.789744       334.965885       354.394872                                              
                                 20          695.050256       335.096141       354.525128                                              
                                 21          695.310769       335.226398       354.655385                                              
                                 22          695.571282       335.356654       354.785641                                              
                                 23          695.831795       335.486911       354.915897                                              
                                 24          696.092308       335.617167       355.046154                                              
                                 25          696.352821       335.747424       355.176410                                              
                                 26          696.613333       335.877680       355.306667                                              
                                 27          696.873846       336.007936       355.436923                                              
                                 28          697.134359       336.138193       355.567179                                              
                                 29          697.394872       336.268449       355.697436                                              
                                 30          697.655385       336.398706       355.827692                                              
                                 31          697.915897       336.528962       355.957949                                              
                                 32          698.176410       336.659218       356.088205                                              
                                 33          698.436923       336.789475       356.218462                                              
                                 34          698.697436       336.919731       356.348718                                              
                                 35          698.957949       337.049988       356.478974                                              
                                 36          699.218462       337.180244       356.609231                                              
                                 37          699.478974       337.310500       356.739487                                              
                                 38          699.739487       337.440757       356.869744                                              
                                 39          700.000000       337.571013       357.000000                                              
 471              (3,8,9)        1           690.100513       332.618089       352.050256      03_08_09                                
                                 2           690.361026       332.748345       352.180513                                              
                                 3           690.621538       332.878601       352.310769                                              
                                 4           690.882051       333.008858       352.441026                                              
                                 5           691.142564       333.139114       352.571282                                              
                                 6           691.403077       333.269371       352.701538                                              
                                 7           691.663590       333.399627       352.831795                                              
                                 8           691.924103       333.529883       352.962051                                              
                                 9           692.184615       333.660140       353.092308                                              
                                 10          692.445128       333.790396       353.222564                                              
                                 11          692.705641       333.920653       353.352821                                              
                                 12          692.966154       334.050909       353.483077                                              
                                 13          693.226667       334.181166       353.613333                                              
                                 14          693.487179       334.311422       353.743590                                              
                                 15          693.747692       334.441678       353.873846                                              
                                 16          694.008205       334.571935       354.004103                                              
                                 17          694.268718       334.702191       354.134359                                              
                                 18          694.529231       334.832448       354.264615                                              
                                 19          694.789744       334.962704       354.394872                                              
                                 20          695.050256       335.092960       354.525128                                              
                                 21          695.310769       335.223217       354.655385                                              
                                 22          695.571282       335.353473       354.785641                                              
                                 23          695.831795       335.483730       354.915897                                              
                                 24          696.092308       335.613986       355.046154                                              
                                 25          696.352821       335.744242       355.176410                                              
                                 26          696.613333       335.874499       355.306667                                              
                                 27          696.873846       336.004755       355.436923                                              
                                 28          697.134359       336.135012       355.567179                                              
                                 29          697.394872       336.265268       355.697436                                              
                                 30          697.655385       336.395525       355.827692                                              
                                 31          697.915897       336.525781       355.957949                                              
                                 32          698.176410       336.656037       356.088205                                              
                                 33          698.436923       336.786294       356.218462                                              
                                 34          698.697436       336.916550       356.348718                                              
                                 35          698.957949       337.046807       356.478974                                              
                                 36          699.218462       337.177063       356.609231                                              
                                 37          699.478974       337.307319       356.739487                                              
                                 38          699.739487       337.437576       356.869744                                              
                                 39          700.000000       337.567832       357.000000                                              
 472              (3,8,10)       1           690.100513       332.614372       352.050256      03_08_10                                
                                 2           690.361026       332.744628       352.180513                                              
                                 3           690.621538       332.874884       352.310769                                              
                                 4           690.882051       333.005141       352.441026                                              
                                 5           691.142564       333.135397       352.571282                                              
                                 6           691.403077       333.265654       352.701538                                              
                                 7           691.663590       333.395910       352.831795                                              
                                 8           691.924103       333.526166       352.962051                                              
                                 9           692.184615       333.656423       353.092308                                              
                                 10          692.445128       333.786679       353.222564                                              
                                 11          692.705641       333.916936       353.352821                                              
                                 12          692.966154       334.047192       353.483077                                              
                                 13          693.226667       334.177448       353.613333                                              
                                 14          693.487179       334.307705       353.743590                                              
                                 15          693.747692       334.437961       353.873846                                              
                                 16          694.008205       334.568218       354.004103                                              
                                 17          694.268718       334.698474       354.134359                                              
                                 18          694.529231       334.828731       354.264615                                              
                                 19          694.789744       334.958987       354.394872                                              
                                 20          695.050256       335.089243       354.525128                                              
                                 21          695.310769       335.219500       354.655385                                              
                                 22          695.571282       335.349756       354.785641                                              
                                 23          695.831795       335.480013       354.915897                                              
                                 24          696.092308       335.610269       355.046154                                              
                                 25          696.352821       335.740525       355.176410                                              
                                 26          696.613333       335.870782       355.306667                                              
                                 27          696.873846       336.001038       355.436923                                              
                                 28          697.134359       336.131295       355.567179                                              
                                 29          697.394872       336.261551       355.697436                                              
                                 30          697.655385       336.391807       355.827692                                              
                                 31          697.915897       336.522064       355.957949                                              
                                 32          698.176410       336.652320       356.088205                                              
                                 33          698.436923       336.782577       356.218462                                              
                                 34          698.697436       336.912833       356.348718                                              
                                 35          698.957949       337.043090       356.478974                                              
                                 36          699.218462       337.173346       356.609231                                              
                                 37          699.478974       337.303602       356.739487                                              
                                 38          699.739487       337.433859       356.869744                                              
                                 39          700.000000       337.564115       357.000000                                              
 473              (3,9,1)        1           690.100513       332.679124       352.050256      03_09_01                                
                                 2           690.361026       332.809380       352.180513                                              
                                 3           690.621538       332.939637       352.310769                                              
                                 4           690.882051       333.069893       352.441026                                              
                                 5           691.142564       333.200150       352.571282                                              
                                 6           691.403077       333.330406       352.701538                                              
                                 7           691.663590       333.460662       352.831795                                              
                                 8           691.924103       333.590919       352.962051                                              
                                 9           692.184615       333.721175       353.092308                                              
                                 10          692.445128       333.851432       353.222564                                              
                                 11          692.705641       333.981688       353.352821                                              
                                 12          692.966154       334.111945       353.483077                                              
                                 13          693.226667       334.242201       353.613333                                              
                                 14          693.487179       334.372457       353.743590                                              
                                 15          693.747692       334.502714       353.873846                                              
                                 16          694.008205       334.632970       354.004103                                              
                                 17          694.268718       334.763227       354.134359                                              
                                 18          694.529231       334.893483       354.264615                                              
                                 19          694.789744       335.023739       354.394872                                              
                                 20          695.050256       335.153996       354.525128                                              
                                 21          695.310769       335.284252       354.655385                                              
                                 22          695.571282       335.414509       354.785641                                              
                                 23          695.831795       335.544765       354.915897                                              
                                 24          696.092308       335.675021       355.046154                                              
                                 25          696.352821       335.805278       355.176410                                              
                                 26          696.613333       335.935534       355.306667                                              
                                 27          696.873846       336.065791       355.436923                                              
                                 28          697.134359       336.196047       355.567179                                              
                                 29          697.394872       336.326303       355.697436                                              
                                 30          697.655385       336.456560       355.827692                                              
                                 31          697.915897       336.586816       355.957949                                              
                                 32          698.176410       336.717073       356.088205                                              
                                 33          698.436923       336.847329       356.218462                                              
                                 34          698.697436       336.977586       356.348718                                              
                                 35          698.957949       337.107842       356.478974                                              
                                 36          699.218462       337.238098       356.609231                                              
                                 37          699.478974       337.368355       356.739487                                              
                                 38          699.739487       337.498611       356.869744                                              
                                 39          700.000000       337.628868       357.000000                                              
 474              (3,9,2)        1           690.100513       332.683776       352.050256      03_09_02                                
                                 2           690.361026       332.814033       352.180513                                              
                                 3           690.621538       332.944289       352.310769                                              
                                 4           690.882051       333.074545       352.441026                                              
                                 5           691.142564       333.204802       352.571282                                              
                                 6           691.403077       333.335058       352.701538                                              
                                 7           691.663590       333.465315       352.831795                                              
                                 8           691.924103       333.595571       352.962051                                              
                                 9           692.184615       333.725827       353.092308                                              
                                 10          692.445128       333.856084       353.222564                                              
                                 11          692.705641       333.986340       353.352821                                              
                                 12          692.966154       334.116597       353.483077                                              
                                 13          693.226667       334.246853       353.613333                                              
                                 14          693.487179       334.377109       353.743590                                              
                                 15          693.747692       334.507366       353.873846                                              
                                 16          694.008205       334.637622       354.004103                                              
                                 17          694.268718       334.767879       354.134359                                              
                                 18          694.529231       334.898135       354.264615                                              
                                 19          694.789744       335.028392       354.394872                                              
                                 20          695.050256       335.158648       354.525128                                              
                                 21          695.310769       335.288904       354.655385                                              
                                 22          695.571282       335.419161       354.785641                                              
                                 23          695.831795       335.549417       354.915897                                              
                                 24          696.092308       335.679674       355.046154                                              
                                 25          696.352821       335.809930       355.176410                                              
                                 26          696.613333       335.940186       355.306667                                              
                                 27          696.873846       336.070443       355.436923                                              
                                 28          697.134359       336.200699       355.567179                                              
                                 29          697.394872       336.330956       355.697436                                              
                                 30          697.655385       336.461212       355.827692                                              
                                 31          697.915897       336.591468       355.957949                                              
                                 32          698.176410       336.721725       356.088205                                              
                                 33          698.436923       336.851981       356.218462                                              
                                 34          698.697436       336.982238       356.348718                                              
                                 35          698.957949       337.112494       356.478974                                              
                                 36          699.218462       337.242751       356.609231                                              
                                 37          699.478974       337.373007       356.739487                                              
                                 38          699.739487       337.503263       356.869744                                              
                                 39          700.000000       337.633520       357.000000                                              
 475              (3,9,3)        1           690.100513       332.687847       352.050256      03_09_03                                
                                 2           690.361026       332.818103       352.180513                                              
                                 3           690.621538       332.948359       352.310769                                              
                                 4           690.882051       333.078616       352.441026                                              
                                 5           691.142564       333.208872       352.571282                                              
                                 6           691.403077       333.339129       352.701538                                              
                                 7           691.663590       333.469385       352.831795                                              
                                 8           691.924103       333.599641       352.962051                                              
                                 9           692.184615       333.729898       353.092308                                              
                                 10          692.445128       333.860154       353.222564                                              
                                 11          692.705641       333.990411       353.352821                                              
                                 12          692.966154       334.120667       353.483077                                              
                                 13          693.226667       334.250923       353.613333                                              
                                 14          693.487179       334.381180       353.743590                                              
                                 15          693.747692       334.511436       353.873846                                              
                                 16          694.008205       334.641693       354.004103                                              
                                 17          694.268718       334.771949       354.134359                                              
                                 18          694.529231       334.902206       354.264615                                              
                                 19          694.789744       335.032462       354.394872                                              
                                 20          695.050256       335.162718       354.525128                                              
                                 21          695.310769       335.292975       354.655385                                              
                                 22          695.571282       335.423231       354.785641                                              
                                 23          695.831795       335.553488       354.915897                                              
                                 24          696.092308       335.683744       355.046154                                              
                                 25          696.352821       335.814000       355.176410                                              
                                 26          696.613333       335.944257       355.306667                                              
                                 27          696.873846       336.074513       355.436923                                              
                                 28          697.134359       336.204770       355.567179                                              
                                 29          697.394872       336.335026       355.697436                                              
                                 30          697.655385       336.465282       355.827692                                              
                                 31          697.915897       336.595539       355.957949                                              
                                 32          698.176410       336.725795       356.088205                                              
                                 33          698.436923       336.856052       356.218462                                              
                                 34          698.697436       336.986308       356.348718                                              
                                 35          698.957949       337.116564       356.478974                                              
                                 36          699.218462       337.246821       356.609231                                              
                                 37          699.478974       337.377077       356.739487                                              
                                 38          699.739487       337.507334       356.869744                                              
                                 39          700.000000       337.637590       357.000000                                              
 476              (3,9,4)        1           690.100513       332.690732       352.050256      03_09_04                                
                                 2           690.361026       332.820988       352.180513                                              
                                 3           690.621538       332.951245       352.310769                                              
                                 4           690.882051       333.081501       352.441026                                              
                                 5           691.142564       333.211757       352.571282                                              
                                 6           691.403077       333.342014       352.701538                                              
                                 7           691.663590       333.472270       352.831795                                              
                                 8           691.924103       333.602527       352.962051                                              
                                 9           692.184615       333.732783       353.092308                                              
                                 10          692.445128       333.863040       353.222564                                              
                                 11          692.705641       333.993296       353.352821                                              
                                 12          692.966154       334.123552       353.483077                                              
                                 13          693.226667       334.253809       353.613333                                              
                                 14          693.487179       334.384065       353.743590                                              
                                 15          693.747692       334.514322       353.873846                                              
                                 16          694.008205       334.644578       354.004103                                              
                                 17          694.268718       334.774834       354.134359                                              
                                 18          694.529231       334.905091       354.264615                                              
                                 19          694.789744       335.035347       354.394872                                              
                                 20          695.050256       335.165604       354.525128                                              
                                 21          695.310769       335.295860       354.655385                                              
                                 22          695.571282       335.426116       354.785641                                              
                                 23          695.831795       335.556373       354.915897                                              
                                 24          696.092308       335.686629       355.046154                                              
                                 25          696.352821       335.816886       355.176410                                              
                                 26          696.613333       335.947142       355.306667                                              
                                 27          696.873846       336.077398       355.436923                                              
                                 28          697.134359       336.207655       355.567179                                              
                                 29          697.394872       336.337911       355.697436                                              
                                 30          697.655385       336.468168       355.827692                                              
                                 31          697.915897       336.598424       355.957949                                              
                                 32          698.176410       336.728681       356.088205                                              
                                 33          698.436923       336.858937       356.218462                                              
                                 34          698.697436       336.989193       356.348718                                              
                                 35          698.957949       337.119450       356.478974                                              
                                 36          699.218462       337.249706       356.609231                                              
                                 37          699.478974       337.379963       356.739487                                              
                                 38          699.739487       337.510219       356.869744                                              
                                 39          700.000000       337.640475       357.000000                                              
 477              (3,9,5)        1           690.100513       332.692290       352.050256      03_09_05                                
                                 2           690.361026       332.822546       352.180513                                              
                                 3           690.621538       332.952803       352.310769                                              
                                 4           690.882051       333.083059       352.441026                                              
                                 5           691.142564       333.213315       352.571282                                              
                                 6           691.403077       333.343572       352.701538                                              
                                 7           691.663590       333.473828       352.831795                                              
                                 8           691.924103       333.604085       352.962051                                              
                                 9           692.184615       333.734341       353.092308                                              
                                 10          692.445128       333.864598       353.222564                                              
                                 11          692.705641       333.994854       353.352821                                              
                                 12          692.966154       334.125110       353.483077                                              
                                 13          693.226667       334.255367       353.613333                                              
                                 14          693.487179       334.385623       353.743590                                              
                                 15          693.747692       334.515880       353.873846                                              
                                 16          694.008205       334.646136       354.004103                                              
                                 17          694.268718       334.776392       354.134359                                              
                                 18          694.529231       334.906649       354.264615                                              
                                 19          694.789744       335.036905       354.394872                                              
                                 20          695.050256       335.167162       354.525128                                              
                                 21          695.310769       335.297418       354.655385                                              
                                 22          695.571282       335.427674       354.785641                                              
                                 23          695.831795       335.557931       354.915897                                              
                                 24          696.092308       335.688187       355.046154                                              
                                 25          696.352821       335.818444       355.176410                                              
                                 26          696.613333       335.948700       355.306667                                              
                                 27          696.873846       336.078957       355.436923                                              
                                 28          697.134359       336.209213       355.567179                                              
                                 29          697.394872       336.339469       355.697436                                              
                                 30          697.655385       336.469726       355.827692                                              
                                 31          697.915897       336.599982       355.957949                                              
                                 32          698.176410       336.730239       356.088205                                              
                                 33          698.436923       336.860495       356.218462                                              
                                 34          698.697436       336.990751       356.348718                                              
                                 35          698.957949       337.121008       356.478974                                              
                                 36          699.218462       337.251264       356.609231                                              
                                 37          699.478974       337.381521       356.739487                                              
                                 38          699.739487       337.511777       356.869744                                              
                                 39          700.000000       337.642033       357.000000                                              
 478              (3,9,6)        1           690.100513       332.692471       352.050256      03_09_06                                
                                 2           690.361026       332.822727       352.180513                                              
                                 3           690.621538       332.952984       352.310769                                              
                                 4           690.882051       333.083240       352.441026                                              
                                 5           691.142564       333.213497       352.571282                                              
                                 6           691.403077       333.343753       352.701538                                              
                                 7           691.663590       333.474010       352.831795                                              
                                 8           691.924103       333.604266       352.962051                                              
                                 9           692.184615       333.734522       353.092308                                              
                                 10          692.445128       333.864779       353.222564                                              
                                 11          692.705641       333.995035       353.352821                                              
                                 12          692.966154       334.125292       353.483077                                              
                                 13          693.226667       334.255548       353.613333                                              
                                 14          693.487179       334.385804       353.743590                                              
                                 15          693.747692       334.516061       353.873846                                              
                                 16          694.008205       334.646317       354.004103                                              
                                 17          694.268718       334.776574       354.134359                                              
                                 18          694.529231       334.906830       354.264615                                              
                                 19          694.789744       335.037086       354.394872                                              
                                 20          695.050256       335.167343       354.525128                                              
                                 21          695.310769       335.297599       354.655385                                              
                                 22          695.571282       335.427856       354.785641                                              
                                 23          695.831795       335.558112       354.915897                                              
                                 24          696.092308       335.688369       355.046154                                              
                                 25          696.352821       335.818625       355.176410                                              
                                 26          696.613333       335.948881       355.306667                                              
                                 27          696.873846       336.079138       355.436923                                              
                                 28          697.134359       336.209394       355.567179                                              
                                 29          697.394872       336.339651       355.697436                                              
                                 30          697.655385       336.469907       355.827692                                              
                                 31          697.915897       336.600163       355.957949                                              
                                 32          698.176410       336.730420       356.088205                                              
                                 33          698.436923       336.860676       356.218462                                              
                                 34          698.697436       336.990933       356.348718                                              
                                 35          698.957949       337.121189       356.478974                                              
                                 36          699.218462       337.251445       356.609231                                              
                                 37          699.478974       337.381702       356.739487                                              
                                 38          699.739487       337.511958       356.869744                                              
                                 39          700.000000       337.642215       357.000000                                              
 479              (3,9,7)        1           690.100513       332.691258       352.050256      03_09_07                                
                                 2           690.361026       332.821515       352.180513                                              
                                 3           690.621538       332.951771       352.310769                                              
                                 4           690.882051       333.082028       352.441026                                              
                                 5           691.142564       333.212284       352.571282                                              
                                 6           691.403077       333.342540       352.701538                                              
                                 7           691.663590       333.472797       352.831795                                              
                                 8           691.924103       333.603053       352.962051                                              
                                 9           692.184615       333.733310       353.092308                                              
                                 10          692.445128       333.863566       353.222564                                              
                                 11          692.705641       333.993823       353.352821                                              
                                 12          692.966154       334.124079       353.483077                                              
                                 13          693.226667       334.254335       353.613333                                              
                                 14          693.487179       334.384592       353.743590                                              
                                 15          693.747692       334.514848       353.873846                                              
                                 16          694.008205       334.645105       354.004103                                              
                                 17          694.268718       334.775361       354.134359                                              
                                 18          694.529231       334.905617       354.264615                                              
                                 19          694.789744       335.035874       354.394872                                              
                                 20          695.050256       335.166130       354.525128                                              
                                 21          695.310769       335.296387       354.655385                                              
                                 22          695.571282       335.426643       354.785641                                              
                                 23          695.831795       335.556899       354.915897                                              
                                 24          696.092308       335.687156       355.046154                                              
                                 25          696.352821       335.817412       355.176410                                              
                                 26          696.613333       335.947669       355.306667                                              
                                 27          696.873846       336.077925       355.436923                                              
                                 28          697.134359       336.208182       355.567179                                              
                                 29          697.394872       336.338438       355.697436                                              
                                 30          697.655385       336.468694       355.827692                                              
                                 31          697.915897       336.598951       355.957949                                              
                                 32          698.176410       336.729207       356.088205                                              
                                 33          698.436923       336.859464       356.218462                                              
                                 34          698.697436       336.989720       356.348718                                              
                                 35          698.957949       337.119976       356.478974                                              
                                 36          699.218462       337.250233       356.609231                                              
                                 37          699.478974       337.380489       356.739487                                              
                                 38          699.739487       337.510746       356.869744                                              
                                 39          700.000000       337.641002       357.000000                                              
 480              (3,9,8)        1           690.100513       332.688669       352.050256      03_09_08                                
                                 2           690.361026       332.818925       352.180513                                              
                                 3           690.621538       332.949182       352.310769                                              
                                 4           690.882051       333.079438       352.441026                                              
                                 5           691.142564       333.209694       352.571282                                              
                                 6           691.403077       333.339951       352.701538                                              
                                 7           691.663590       333.470207       352.831795                                              
                                 8           691.924103       333.600464       352.962051                                              
                                 9           692.184615       333.730720       353.092308                                              
                                 10          692.445128       333.860976       353.222564                                              
                                 11          692.705641       333.991233       353.352821                                              
                                 12          692.966154       334.121489       353.483077                                              
                                 13          693.226667       334.251746       353.613333                                              
                                 14          693.487179       334.382002       353.743590                                              
                                 15          693.747692       334.512258       353.873846                                              
                                 16          694.008205       334.642515       354.004103                                              
                                 17          694.268718       334.772771       354.134359                                              
                                 18          694.529231       334.903028       354.264615                                              
                                 19          694.789744       335.033284       354.394872                                              
                                 20          695.050256       335.163541       354.525128                                              
                                 21          695.310769       335.293797       354.655385                                              
                                 22          695.571282       335.424053       354.785641                                              
                                 23          695.831795       335.554310       354.915897                                              
                                 24          696.092308       335.684566       355.046154                                              
                                 25          696.352821       335.814823       355.176410                                              
                                 26          696.613333       335.945079       355.306667                                              
                                 27          696.873846       336.075335       355.436923                                              
                                 28          697.134359       336.205592       355.567179                                              
                                 29          697.394872       336.335848       355.697436                                              
                                 30          697.655385       336.466105       355.827692                                              
                                 31          697.915897       336.596361       355.957949                                              
                                 32          698.176410       336.726617       356.088205                                              
                                 33          698.436923       336.856874       356.218462                                              
                                 34          698.697436       336.987130       356.348718                                              
                                 35          698.957949       337.117387       356.478974                                              
                                 36          699.218462       337.247643       356.609231                                              
                                 37          699.478974       337.377900       356.739487                                              
                                 38          699.739487       337.508156       356.869744                                              
                                 39          700.000000       337.638412       357.000000                                              
 481              (3,9,9)        1           690.100513       332.684815       352.050256      03_09_09                                
                                 2           690.361026       332.815072       352.180513                                              
                                 3           690.621538       332.945328       352.310769                                              
                                 4           690.882051       333.075585       352.441026                                              
                                 5           691.142564       333.205841       352.571282                                              
                                 6           691.403077       333.336097       352.701538                                              
                                 7           691.663590       333.466354       352.831795                                              
                                 8           691.924103       333.596610       352.962051                                              
                                 9           692.184615       333.726867       353.092308                                              
                                 10          692.445128       333.857123       353.222564                                              
                                 11          692.705641       333.987380       353.352821                                              
                                 12          692.966154       334.117636       353.483077                                              
                                 13          693.226667       334.247892       353.613333                                              
                                 14          693.487179       334.378149       353.743590                                              
                                 15          693.747692       334.508405       353.873846                                              
                                 16          694.008205       334.638662       354.004103                                              
                                 17          694.268718       334.768918       354.134359                                              
                                 18          694.529231       334.899174       354.264615                                              
                                 19          694.789744       335.029431       354.394872                                              
                                 20          695.050256       335.159687       354.525128                                              
                                 21          695.310769       335.289944       354.655385                                              
                                 22          695.571282       335.420200       354.785641                                              
                                 23          695.831795       335.550456       354.915897                                              
                                 24          696.092308       335.680713       355.046154                                              
                                 25          696.352821       335.810969       355.176410                                              
                                 26          696.613333       335.941226       355.306667                                              
                                 27          696.873846       336.071482       355.436923                                              
                                 28          697.134359       336.201739       355.567179                                              
                                 29          697.394872       336.331995       355.697436                                              
                                 30          697.655385       336.462251       355.827692                                              
                                 31          697.915897       336.592508       355.957949                                              
                                 32          698.176410       336.722764       356.088205                                              
                                 33          698.436923       336.853021       356.218462                                              
                                 34          698.697436       336.983277       356.348718                                              
                                 35          698.957949       337.113533       356.478974                                              
                                 36          699.218462       337.243790       356.609231                                              
                                 37          699.478974       337.374046       356.739487                                              
                                 38          699.739487       337.504303       356.869744                                              
                                 39          700.000000       337.634559       357.000000                                              
 482              (3,9,10)       1           690.100513       332.680280       352.050256      03_09_10                                
                                 2           690.361026       332.810537       352.180513                                              
                                 3           690.621538       332.940793       352.310769                                              
                                 4           690.882051       333.071050       352.441026                                              
                                 5           691.142564       333.201306       352.571282                                              
                                 6           691.403077       333.331562       352.701538                                              
                                 7           691.663590       333.461819       352.831795                                              
                                 8           691.924103       333.592075       352.962051                                              
                                 9           692.184615       333.722332       353.092308                                              
                                 10          692.445128       333.852588       353.222564                                              
                                 11          692.705641       333.982844       353.352821                                              
                                 12          692.966154       334.113101       353.483077                                              
                                 13          693.226667       334.243357       353.613333                                              
                                 14          693.487179       334.373614       353.743590                                              
                                 15          693.747692       334.503870       353.873846                                              
                                 16          694.008205       334.634126       354.004103                                              
                                 17          694.268718       334.764383       354.134359                                              
                                 18          694.529231       334.894639       354.264615                                              
                                 19          694.789744       335.024896       354.394872                                              
                                 20          695.050256       335.155152       354.525128                                              
                                 21          695.310769       335.285409       354.655385                                              
                                 22          695.571282       335.415665       354.785641                                              
                                 23          695.831795       335.545921       354.915897                                              
                                 24          696.092308       335.676178       355.046154                                              
                                 25          696.352821       335.806434       355.176410                                              
                                 26          696.613333       335.936691       355.306667                                              
                                 27          696.873846       336.066947       355.436923                                              
                                 28          697.134359       336.197203       355.567179                                              
                                 29          697.394872       336.327460       355.697436                                              
                                 30          697.655385       336.457716       355.827692                                              
                                 31          697.915897       336.587973       355.957949                                              
                                 32          698.176410       336.718229       356.088205                                              
                                 33          698.436923       336.848485       356.218462                                              
                                 34          698.697436       336.978742       356.348718                                              
                                 35          698.957949       337.108998       356.478974                                              
                                 36          699.218462       337.239255       356.609231                                              
                                 37          699.478974       337.369511       356.739487                                              
                                 38          699.739487       337.499768       356.869744                                              
                                 39          700.000000       337.630024       357.000000                                              
 483              (3,10,1)       1           690.100513       332.708382       352.050256      03_10_01                                
                                 2           690.361026       332.838639       352.180513                                              
                                 3           690.621538       332.968895       352.310769                                              
                                 4           690.882051       333.099151       352.441026                                              
                                 5           691.142564       333.229408       352.571282                                              
                                 6           691.403077       333.359664       352.701538                                              
                                 7           691.663590       333.489921       352.831795                                              
                                 8           691.924103       333.620177       352.962051                                              
                                 9           692.184615       333.750433       353.092308                                              
                                 10          692.445128       333.880690       353.222564                                              
                                 11          692.705641       334.010946       353.352821                                              
                                 12          692.966154       334.141203       353.483077                                              
                                 13          693.226667       334.271459       353.613333                                              
                                 14          693.487179       334.401715       353.743590                                              
                                 15          693.747692       334.531972       353.873846                                              
                                 16          694.008205       334.662228       354.004103                                              
                                 17          694.268718       334.792485       354.134359                                              
                                 18          694.529231       334.922741       354.264615                                              
                                 19          694.789744       335.052998       354.394872                                              
                                 20          695.050256       335.183254       354.525128                                              
                                 21          695.310769       335.313510       354.655385                                              
                                 22          695.571282       335.443767       354.785641                                              
                                 23          695.831795       335.574023       354.915897                                              
                                 24          696.092308       335.704280       355.046154                                              
                                 25          696.352821       335.834536       355.176410                                              
                                 26          696.613333       335.964792       355.306667                                              
                                 27          696.873846       336.095049       355.436923                                              
                                 28          697.134359       336.225305       355.567179                                              
                                 29          697.394872       336.355562       355.697436                                              
                                 30          697.655385       336.485818       355.827692                                              
                                 31          697.915897       336.616074       355.957949                                              
                                 32          698.176410       336.746331       356.088205                                              
                                 33          698.436923       336.876587       356.218462                                              
                                 34          698.697436       337.006844       356.348718                                              
                                 35          698.957949       337.137100       356.478974                                              
                                 36          699.218462       337.267357       356.609231                                              
                                 37          699.478974       337.397613       356.739487                                              
                                 38          699.739487       337.527869       356.869744                                              
                                 39          700.000000       337.658126       357.000000                                              
 484              (3,10,2)       1           690.100513       332.709899       352.050256      03_10_02                                
                                 2           690.361026       332.840156       352.180513                                              
                                 3           690.621538       332.970412       352.310769                                              
                                 4           690.882051       333.100668       352.441026                                              
                                 5           691.142564       333.230925       352.571282                                              
                                 6           691.403077       333.361181       352.701538                                              
                                 7           691.663590       333.491438       352.831795                                              
                                 8           691.924103       333.621694       352.962051                                              
                                 9           692.184615       333.751950       353.092308                                              
                                 10          692.445128       333.882207       353.222564                                              
                                 11          692.705641       334.012463       353.352821                                              
                                 12          692.966154       334.142720       353.483077                                              
                                 13          693.226667       334.272976       353.613333                                              
                                 14          693.487179       334.403233       353.743590                                              
                                 15          693.747692       334.533489       353.873846                                              
                                 16          694.008205       334.663745       354.004103                                              
                                 17          694.268718       334.794002       354.134359                                              
                                 18          694.529231       334.924258       354.264615                                              
                                 19          694.789744       335.054515       354.394872                                              
                                 20          695.050256       335.184771       354.525128                                              
                                 21          695.310769       335.315027       354.655385                                              
                                 22          695.571282       335.445284       354.785641                                              
                                 23          695.831795       335.575540       354.915897                                              
                                 24          696.092308       335.705797       355.046154                                              
                                 25          696.352821       335.836053       355.176410                                              
                                 26          696.613333       335.966309       355.306667                                              
                                 27          696.873846       336.096566       355.436923                                              
                                 28          697.134359       336.226822       355.567179                                              
                                 29          697.394872       336.357079       355.697436                                              
                                 30          697.655385       336.487335       355.827692                                              
                                 31          697.915897       336.617592       355.957949                                              
                                 32          698.176410       336.747848       356.088205                                              
                                 33          698.436923       336.878104       356.218462                                              
                                 34          698.697436       337.008361       356.348718                                              
                                 35          698.957949       337.138617       356.478974                                              
                                 36          699.218462       337.268874       356.609231                                              
                                 37          699.478974       337.399130       356.739487                                              
                                 38          699.739487       337.529386       356.869744                                              
                                 39          700.000000       337.659643       357.000000                                              
 485              (3,10,3)       1           690.100513       332.711887       352.050256      03_10_03                                
                                 2           690.361026       332.842144       352.180513                                              
                                 3           690.621538       332.972400       352.310769                                              
                                 4           690.882051       333.102657       352.441026                                              
                                 5           691.142564       333.232913       352.571282                                              
                                 6           691.403077       333.363169       352.701538                                              
                                 7           691.663590       333.493426       352.831795                                              
                                 8           691.924103       333.623682       352.962051                                              
                                 9           692.184615       333.753939       353.092308                                              
                                 10          692.445128       333.884195       353.222564                                              
                                 11          692.705641       334.014451       353.352821                                              
                                 12          692.966154       334.144708       353.483077                                              
                                 13          693.226667       334.274964       353.613333                                              
                                 14          693.487179       334.405221       353.743590                                              
                                 15          693.747692       334.535477       353.873846                                              
                                 16          694.008205       334.665733       354.004103                                              
                                 17          694.268718       334.795990       354.134359                                              
                                 18          694.529231       334.926246       354.264615                                              
                                 19          694.789744       335.056503       354.394872                                              
                                 20          695.050256       335.186759       354.525128                                              
                                 21          695.310769       335.317016       354.655385                                              
                                 22          695.571282       335.447272       354.785641                                              
                                 23          695.831795       335.577528       354.915897                                              
                                 24          696.092308       335.707785       355.046154                                              
                                 25          696.352821       335.838041       355.176410                                              
                                 26          696.613333       335.968298       355.306667                                              
                                 27          696.873846       336.098554       355.436923                                              
                                 28          697.134359       336.228810       355.567179                                              
                                 29          697.394872       336.359067       355.697436                                              
                                 30          697.655385       336.489323       355.827692                                              
                                 31          697.915897       336.619580       355.957949                                              
                                 32          698.176410       336.749836       356.088205                                              
                                 33          698.436923       336.880092       356.218462                                              
                                 34          698.697436       337.010349       356.348718                                              
                                 35          698.957949       337.140605       356.478974                                              
                                 36          699.218462       337.270862       356.609231                                              
                                 37          699.478974       337.401118       356.739487                                              
                                 38          699.739487       337.531375       356.869744                                              
                                 39          700.000000       337.661631       357.000000                                              
 486              (3,10,4)       1           690.100513       332.713619       352.050256      03_10_04                                
                                 2           690.361026       332.843875       352.180513                                              
                                 3           690.621538       332.974132       352.310769                                              
                                 4           690.882051       333.104388       352.441026                                              
                                 5           691.142564       333.234645       352.571282                                              
                                 6           691.403077       333.364901       352.701538                                              
                                 7           691.663590       333.495157       352.831795                                              
                                 8           691.924103       333.625414       352.962051                                              
                                 9           692.184615       333.755670       353.092308                                              
                                 10          692.445128       333.885927       353.222564                                              
                                 11          692.705641       334.016183       353.352821                                              
                                 12          692.966154       334.146439       353.483077                                              
                                 13          693.226667       334.276696       353.613333                                              
                                 14          693.487179       334.406952       353.743590                                              
                                 15          693.747692       334.537209       353.873846                                              
                                 16          694.008205       334.667465       354.004103                                              
                                 17          694.268718       334.797722       354.134359                                              
                                 18          694.529231       334.927978       354.264615                                              
                                 19          694.789744       335.058234       354.394872                                              
                                 20          695.050256       335.188491       354.525128                                              
                                 21          695.310769       335.318747       354.655385                                              
                                 22          695.571282       335.449004       354.785641                                              
                                 23          695.831795       335.579260       354.915897                                              
                                 24          696.092308       335.709516       355.046154                                              
                                 25          696.352821       335.839773       355.176410                                              
                                 26          696.613333       335.970029       355.306667                                              
                                 27          696.873846       336.100286       355.436923                                              
                                 28          697.134359       336.230542       355.567179                                              
                                 29          697.394872       336.360798       355.697436                                              
                                 30          697.655385       336.491055       355.827692                                              
                                 31          697.915897       336.621311       355.957949                                              
                                 32          698.176410       336.751568       356.088205                                              
                                 33          698.436923       336.881824       356.218462                                              
                                 34          698.697436       337.012080       356.348718                                              
                                 35          698.957949       337.142337       356.478974                                              
                                 36          699.218462       337.272593       356.609231                                              
                                 37          699.478974       337.402850       356.739487                                              
                                 38          699.739487       337.533106       356.869744                                              
                                 39          700.000000       337.663363       357.000000                                              
 487              (3,10,5)       1           690.100513       332.714659       352.050256      03_10_05                                
                                 2           690.361026       332.844915       352.180513                                              
                                 3           690.621538       332.975172       352.310769                                              
                                 4           690.882051       333.105428       352.441026                                              
                                 5           691.142564       333.235684       352.571282                                              
                                 6           691.403077       333.365941       352.701538                                              
                                 7           691.663590       333.496197       352.831795                                              
                                 8           691.924103       333.626454       352.962051                                              
                                 9           692.184615       333.756710       353.092308                                              
                                 10          692.445128       333.886966       353.222564                                              
                                 11          692.705641       334.017223       353.352821                                              
                                 12          692.966154       334.147479       353.483077                                              
                                 13          693.226667       334.277736       353.613333                                              
                                 14          693.487179       334.407992       353.743590                                              
                                 15          693.747692       334.538249       353.873846                                              
                                 16          694.008205       334.668505       354.004103                                              
                                 17          694.268718       334.798761       354.134359                                              
                                 18          694.529231       334.929018       354.264615                                              
                                 19          694.789744       335.059274       354.394872                                              
                                 20          695.050256       335.189531       354.525128                                              
                                 21          695.310769       335.319787       354.655385                                              
                                 22          695.571282       335.450043       354.785641                                              
                                 23          695.831795       335.580300       354.915897                                              
                                 24          696.092308       335.710556       355.046154                                              
                                 25          696.352821       335.840813       355.176410                                              
                                 26          696.613333       335.971069       355.306667                                              
                                 27          696.873846       336.101325       355.436923                                              
                                 28          697.134359       336.231582       355.567179                                              
                                 29          697.394872       336.361838       355.697436                                              
                                 30          697.655385       336.492095       355.827692                                              
                                 31          697.915897       336.622351       355.957949                                              
                                 32          698.176410       336.752608       356.088205                                              
                                 33          698.436923       336.882864       356.218462                                              
                                 34          698.697436       337.013120       356.348718                                              
                                 35          698.957949       337.143377       356.478974                                              
                                 36          699.218462       337.273633       356.609231                                              
                                 37          699.478974       337.403890       356.739487                                              
                                 38          699.739487       337.534146       356.869744                                              
                                 39          700.000000       337.664402       357.000000                                              
 488              (3,10,6)       1           690.100513       332.714803       352.050256      03_10_06                                
                                 2           690.361026       332.845059       352.180513                                              
                                 3           690.621538       332.975315       352.310769                                              
                                 4           690.882051       333.105572       352.441026                                              
                                 5           691.142564       333.235828       352.571282                                              
                                 6           691.403077       333.366085       352.701538                                              
                                 7           691.663590       333.496341       352.831795                                              
                                 8           691.924103       333.626597       352.962051                                              
                                 9           692.184615       333.756854       353.092308                                              
                                 10          692.445128       333.887110       353.222564                                              
                                 11          692.705641       334.017367       353.352821                                              
                                 12          692.966154       334.147623       353.483077                                              
                                 13          693.226667       334.277880       353.613333                                              
                                 14          693.487179       334.408136       353.743590                                              
                                 15          693.747692       334.538392       353.873846                                              
                                 16          694.008205       334.668649       354.004103                                              
                                 17          694.268718       334.798905       354.134359                                              
                                 18          694.529231       334.929162       354.264615                                              
                                 19          694.789744       335.059418       354.394872                                              
                                 20          695.050256       335.189674       354.525128                                              
                                 21          695.310769       335.319931       354.655385                                              
                                 22          695.571282       335.450187       354.785641                                              
                                 23          695.831795       335.580444       354.915897                                              
                                 24          696.092308       335.710700       355.046154                                              
                                 25          696.352821       335.840956       355.176410                                              
                                 26          696.613333       335.971213       355.306667                                              
                                 27          696.873846       336.101469       355.436923                                              
                                 28          697.134359       336.231726       355.567179                                              
                                 29          697.394872       336.361982       355.697436                                              
                                 30          697.655385       336.492238       355.827692                                              
                                 31          697.915897       336.622495       355.957949                                              
                                 32          698.176410       336.752751       356.088205                                              
                                 33          698.436923       336.883008       356.218462                                              
                                 34          698.697436       337.013264       356.348718                                              
                                 35          698.957949       337.143521       356.478974                                              
                                 36          699.218462       337.273777       356.609231                                              
                                 37          699.478974       337.404033       356.739487                                              
                                 38          699.739487       337.534290       356.869744                                              
                                 39          700.000000       337.664546       357.000000                                              
 489              (3,10,7)       1           690.100513       332.714037       352.050256      03_10_07                                
                                 2           690.361026       332.844294       352.180513                                              
                                 3           690.621538       332.974550       352.310769                                              
                                 4           690.882051       333.104806       352.441026                                              
                                 5           691.142564       333.235063       352.571282                                              
                                 6           691.403077       333.365319       352.701538                                              
                                 7           691.663590       333.495576       352.831795                                              
                                 8           691.924103       333.625832       352.962051                                              
                                 9           692.184615       333.756088       353.092308                                              
                                 10          692.445128       333.886345       353.222564                                              
                                 11          692.705641       334.016601       353.352821                                              
                                 12          692.966154       334.146858       353.483077                                              
                                 13          693.226667       334.277114       353.613333                                              
                                 14          693.487179       334.407370       353.743590                                              
                                 15          693.747692       334.537627       353.873846                                              
                                 16          694.008205       334.667883       354.004103                                              
                                 17          694.268718       334.798140       354.134359                                              
                                 18          694.529231       334.928396       354.264615                                              
                                 19          694.789744       335.058653       354.394872                                              
                                 20          695.050256       335.188909       354.525128                                              
                                 21          695.310769       335.319165       354.655385                                              
                                 22          695.571282       335.449422       354.785641                                              
                                 23          695.831795       335.579678       354.915897                                              
                                 24          696.092308       335.709935       355.046154                                              
                                 25          696.352821       335.840191       355.176410                                              
                                 26          696.613333       335.970447       355.306667                                              
                                 27          696.873846       336.100704       355.436923                                              
                                 28          697.134359       336.230960       355.567179                                              
                                 29          697.394872       336.361217       355.697436                                              
                                 30          697.655385       336.491473       355.827692                                              
                                 31          697.915897       336.621729       355.957949                                              
                                 32          698.176410       336.751986       356.088205                                              
                                 33          698.436923       336.882242       356.218462                                              
                                 34          698.697436       337.012499       356.348718                                              
                                 35          698.957949       337.142755       356.478974                                              
                                 36          699.218462       337.273012       356.609231                                              
                                 37          699.478974       337.403268       356.739487                                              
                                 38          699.739487       337.533524       356.869744                                              
                                 39          700.000000       337.663781       357.000000                                              
 490              (3,10,8)       1           690.100513       332.712541       352.050256      03_10_08                                
                                 2           690.361026       332.842798       352.180513                                              
                                 3           690.621538       332.973054       352.310769                                              
                                 4           690.882051       333.103311       352.441026                                              
                                 5           691.142564       333.233567       352.571282                                              
                                 6           691.403077       333.363823       352.701538                                              
                                 7           691.663590       333.494080       352.831795                                              
                                 8           691.924103       333.624336       352.962051                                              
                                 9           692.184615       333.754593       353.092308                                              
                                 10          692.445128       333.884849       353.222564                                              
                                 11          692.705641       334.015105       353.352821                                              
                                 12          692.966154       334.145362       353.483077                                              
                                 13          693.226667       334.275618       353.613333                                              
                                 14          693.487179       334.405875       353.743590                                              
                                 15          693.747692       334.536131       353.873846                                              
                                 16          694.008205       334.666387       354.004103                                              
                                 17          694.268718       334.796644       354.134359                                              
                                 18          694.529231       334.926900       354.264615                                              
                                 19          694.789744       335.057157       354.394872                                              
                                 20          695.050256       335.187413       354.525128                                              
                                 21          695.310769       335.317670       354.655385                                              
                                 22          695.571282       335.447926       354.785641                                              
                                 23          695.831795       335.578182       354.915897                                              
                                 24          696.092308       335.708439       355.046154                                              
                                 25          696.352821       335.838695       355.176410                                              
                                 26          696.613333       335.968952       355.306667                                              
                                 27          696.873846       336.099208       355.436923                                              
                                 28          697.134359       336.229464       355.567179                                              
                                 29          697.394872       336.359721       355.697436                                              
                                 30          697.655385       336.489977       355.827692                                              
                                 31          697.915897       336.620234       355.957949                                              
                                 32          698.176410       336.750490       356.088205                                              
                                 33          698.436923       336.880746       356.218462                                              
                                 34          698.697436       337.011003       356.348718                                              
                                 35          698.957949       337.141259       356.478974                                              
                                 36          699.218462       337.271516       356.609231                                              
                                 37          699.478974       337.401772       356.739487                                              
                                 38          699.739487       337.532029       356.869744                                              
                                 39          700.000000       337.662285       357.000000                                              
 491              (3,10,9)       1           690.100513       332.710728       352.050256      03_10_09                                
                                 2           690.361026       332.840984       352.180513                                              
                                 3           690.621538       332.971240       352.310769                                              
                                 4           690.882051       333.101497       352.441026                                              
                                 5           691.142564       333.231753       352.571282                                              
                                 6           691.403077       333.362010       352.701538                                              
                                 7           691.663590       333.492266       352.831795                                              
                                 8           691.924103       333.622522       352.962051                                              
                                 9           692.184615       333.752779       353.092308                                              
                                 10          692.445128       333.883035       353.222564                                              
                                 11          692.705641       334.013292       353.352821                                              
                                 12          692.966154       334.143548       353.483077                                              
                                 13          693.226667       334.273805       353.613333                                              
                                 14          693.487179       334.404061       353.743590                                              
                                 15          693.747692       334.534317       353.873846                                              
                                 16          694.008205       334.664574       354.004103                                              
                                 17          694.268718       334.794830       354.134359                                              
                                 18          694.529231       334.925087       354.264615                                              
                                 19          694.789744       335.055343       354.394872                                              
                                 20          695.050256       335.185599       354.525128                                              
                                 21          695.310769       335.315856       354.655385                                              
                                 22          695.571282       335.446112       354.785641                                              
                                 23          695.831795       335.576369       354.915897                                              
                                 24          696.092308       335.706625       355.046154                                              
                                 25          696.352821       335.836881       355.176410                                              
                                 26          696.613333       335.967138       355.306667                                              
                                 27          696.873846       336.097394       355.436923                                              
                                 28          697.134359       336.227651       355.567179                                              
                                 29          697.394872       336.357907       355.697436                                              
                                 30          697.655385       336.488163       355.827692                                              
                                 31          697.915897       336.618420       355.957949                                              
                                 32          698.176410       336.748676       356.088205                                              
                                 33          698.436923       336.878933       356.218462                                              
                                 34          698.697436       337.009189       356.348718                                              
                                 35          698.957949       337.139446       356.478974                                              
                                 36          699.218462       337.269702       356.609231                                              
                                 37          699.478974       337.399958       356.739487                                              
                                 38          699.739487       337.530215       356.869744                                              
                                 39          700.000000       337.660471       357.000000                                              
 492             (3,10,10)       1           690.100513       332.709305       352.050256      03_10_10                                
                                 2           690.361026       332.839561       352.180513                                              
                                 3           690.621538       332.969818       352.310769                                              
                                 4           690.882051       333.100074       352.441026                                              
                                 5           691.142564       333.230330       352.571282                                              
                                 6           691.403077       333.360587       352.701538                                              
                                 7           691.663590       333.490843       352.831795                                              
                                 8           691.924103       333.621100       352.962051                                              
                                 9           692.184615       333.751356       353.092308                                              
                                 10          692.445128       333.881612       353.222564                                              
                                 11          692.705641       334.011869       353.352821                                              
                                 12          692.966154       334.142125       353.483077                                              
                                 13          693.226667       334.272382       353.613333                                              
                                 14          693.487179       334.402638       353.743590                                              
                                 15          693.747692       334.532894       353.873846                                              
                                 16          694.008205       334.663151       354.004103                                              
                                 17          694.268718       334.793407       354.134359                                              
                                 18          694.529231       334.923664       354.264615                                              
                                 19          694.789744       335.053920       354.394872                                              
                                 20          695.050256       335.184177       354.525128                                              
                                 21          695.310769       335.314433       354.655385                                              
                                 22          695.571282       335.444689       354.785641                                              
                                 23          695.831795       335.574946       354.915897                                              
                                 24          696.092308       335.705202       355.046154                                              
                                 25          696.352821       335.835459       355.176410                                              
                                 26          696.613333       335.965715       355.306667                                              
                                 27          696.873846       336.095971       355.436923                                              
                                 28          697.134359       336.226228       355.567179                                              
                                 29          697.394872       336.356484       355.697436                                              
                                 30          697.655385       336.486741       355.827692                                              
                                 31          697.915897       336.616997       355.957949                                              
                                 32          698.176410       336.747253       356.088205                                              
                                 33          698.436923       336.877510       356.218462                                              
                                 34          698.697436       337.007766       356.348718                                              
                                 35          698.957949       337.138023       356.478974                                              
                                 36          699.218462       337.268279       356.609231                                              
                                 37          699.478974       337.398536       356.739487                                              
                                 38          699.739487       337.528792       356.869744                                              
                                 39          700.000000       337.659048       357.000000                                              
 --------------------------------------------------------------------------------------------------------------------------------------



end timestep


start timestep kper="2" kstp="2" mode="normal"


end timestep


start timestep kper="2" kstp="3" mode="normal"


end timestep


start timestep kper="2" kstp="4" mode="normal"


end timestep


start timestep kper="2" kstp="5" mode="normal"


end timestep


start timestep kper="2" kstp="6" mode="normal"

 UBDSV1 SAVING  CSUB-CGELASTIC  ON UNIT   1022 AT TIME STEP      6, STRESS PERIOD      2
 UBDSV06 SAVING    CSUB-ELASTIC  IN MODEL CSUB_SUB03B      PACKAGE CSUB_SUB03B     CONNECTED TO MODEL CSUB_SUB03B      PACKAGE CSUB             ON UNIT   1022 AT TIME STEP      6, STRESS PERIOD      2
 UBDSV06 SAVING  CSUB-INELASTIC  IN MODEL CSUB_SUB03B      PACKAGE CSUB_SUB03B     CONNECTED TO MODEL CSUB_SUB03B      PACKAGE CSUB             ON UNIT   1022 AT TIME STEP      6, STRESS PERIOD      2
 UBDSV1 SAVING  CSUB-WATERCOMP  ON UNIT   1022 AT TIME STEP      6, STRESS PERIOD      2

 WEL PACKAGE (WEL_0) FLOW RATES   PERIOD      2   STEP        6
 -----------------------------------------------
   NUMBER   CELLID                    RATE      
 -----------------------------------------------
     1      (3,3,6)              -14000.000     
     2      (3,3,7)              -8000.0000     
     3      (3,4,6)              -5000.0000     
     4      (3,4,7)              -3000.0000     
 -----------------------------------------------




 CSUB-COMPACTION WILL BE SAVED ON UNIT 1018 AT END OF TIME STEP    6, STRESS PERIOD    2
1
  HEAD IN LAYER   1 AT END OF TIME STEP   6 IN STRESS PERIOD    2
  ---------------------------------------------------------------------------

                1               2               3               4               5               6               7               8               9              10
 ................................................................................................................................................................
   1      20.7472         20.3170         19.5009         18.9748         18.7019         18.6681         18.8762         19.3460         20.1200         20.5274    
   2      19.5671         18.9563         18.4320         18.0498         17.8318         17.7865         17.9167         18.2199         18.6813         19.2553    
   3      17.9236         17.3287         16.8708         16.5446         16.3483         16.2814         16.3449         16.5397         16.8726         17.3714    
   4      15.7450         15.2269         14.8557         14.5947         14.4270         14.3429         14.3339         14.3866         14.4778         14.5655    
   5      12.7138         12.6034         12.4656         12.3388         12.2407         12.1777         12.1493         12.1487         12.1640         12.1793    
   6      10.1832         10.1461         10.0878         10.0252         9.97091         9.93226         9.91119         9.90487         9.90715         9.91094    
   7      7.84786         7.82051         7.77529         7.72600         7.68638         7.66448         7.66202         7.67442         7.69171         7.70380    
   8      5.65749         5.60529         5.51831         5.42744         5.37027         5.35839         5.39278         5.46384         5.53607         5.58038    
   9      3.70108         3.56023         3.30855         3.02558         2.90441         2.89868         3.00849         3.28023         3.52325         3.65941    
  10      2.32406         1.98229         1.24813         0.00000         0.00000         0.00000         0.00000         1.23581         1.96166         2.29921    
1
  HEAD IN LAYER   2 AT END OF TIME STEP   6 IN STRESS PERIOD    2
  ---------------------------------------------------------------------------

                1               2               3               4               5               6               7               8               9              10
 ................................................................................................................................................................
   1      3.78893         3.83077         3.85567         3.86672         3.86631         3.85601         3.83644         3.80690         3.76545         3.70911    
   2      3.54820         5.36623         5.24324         4.85319         4.46049         4.17431         4.26071         4.60745         4.80996         3.41811    
   3      3.23708         4.58052         4.28454         3.60549         2.58479         1.12654         1.54842         2.83544         3.58400         3.07039    
   4      2.87134         3.75132         3.50479         3.02651         2.38869         1.62418         1.77712         2.41772         2.83952         2.69142    
   5      2.46757         2.80023         2.69754         2.50697         2.29566         2.12312         2.11293         2.22020         2.32870         2.30082    
   6      2.05023         1.90693         1.82224         1.73819         1.65888         1.60161         1.58180         1.59508         1.65179         1.90671    
   7      1.63657         1.05906        0.941101        0.888951        0.846824        0.818877        0.809135        0.819669        0.914281         1.52020    
   8      1.24123        0.217848        2.589054E-02   -3.994268E-02   -7.997345E-02   -9.481992E-02   -8.287479E-02   -4.062027E-02    0.134740         1.15315    
   9     0.878439       -0.555000       -0.867183        -1.01588        -1.08245        -1.09044        -1.03927       -0.904346       -0.603365        0.818626    
  10     0.561521        0.494144        0.439509        0.399568        0.377874        0.374330        0.388936        0.421789        0.469367        0.529724    
1
  HEAD IN LAYER   3 AT END OF TIME STEP   6 IN STRESS PERIOD    2
  ---------------------------------------------------------------------------

                1               2               3               4               5               6               7               8               9              10
 ................................................................................................................................................................
   1     -7.40332        -7.48364        -7.63834        -7.84858        -8.07272        -8.23932        -8.26689        -8.18030        -8.06691        -7.99392    
   2     -7.56626        -7.71583        -8.02915        -8.51152        -9.12310        -9.68199        -9.62692        -9.16838        -8.74999        -8.52154    
   3     -7.71176        -7.96969        -8.56079        -9.65125        -11.5568        -14.8944        -13.9184        -11.2186        -9.79310        -9.17505    
   4     -7.50339        -7.69886        -8.13005        -8.86711        -10.0090        -11.6431        -11.2596        -9.90031        -9.05136        -8.64979    
   5     -7.15115        -7.23400        -7.40365        -7.66018        -7.98665        -8.27468        -8.26381        -8.03978        -7.81899        -7.69334    
   6     -6.75014        -6.79152        -6.86896        -6.97006        -7.07048        -7.14232        -7.15826        -7.12868        -7.08710        -7.05954    
   7     -6.33243        -6.35219        -6.38686        -6.42981        -6.47203        -6.50435        -6.52072        -6.52251        -6.51667        -6.51069    
   8     -5.98441        -5.99525        -6.01255        -6.03317        -6.05359        -6.07048        -6.08171        -6.08705        -6.08784        -6.08620    
   9     -5.74046        -5.74775        -5.75809        -5.76983        -5.78139        -5.79128        -5.79847        -5.80248        -5.80344        -5.80203    
  10     -5.61260        -5.61626        -5.62248        -5.63007        -5.63789        -5.64496        -5.65057        -5.65437        -5.65639        -5.65706    

 HEAD WILL BE SAVED ON UNIT 1023 AT END OF TIME STEP    6, STRESS PERIOD    2


  VOLUME BUDGET FOR ENTIRE MODEL AT END OF TIME STEP    6, STRESS PERIOD   2
  ---------------------------------------------------------------------------------------------------

     CUMULATIVE VOLUME      L**3       RATES FOR THIS TIME STEP      L**3/T          PACKAGE NAME    
     ------------------                 ------------------------                     ----------------

           IN:                                      IN:
           ---                                      ---
              STO-SS =           0.0000                STO-SS =           0.0000     STORAGE                          
      CSUB-CGELASTIC =     1011213.5267        CSUB-CGELASTIC =         538.2521     CSUB                             
        CSUB-ELASTIC =     3212384.5291          CSUB-ELASTIC =        1565.6316     CSUB                             
      CSUB-INELASTIC =     5392582.2069        CSUB-INELASTIC =       22678.3047     CSUB                             
      CSUB-WATERCOMP =           0.0000        CSUB-WATERCOMP =           0.0000     CSUB                             
                 WEL =           0.0000                   WEL =           0.0000     WEL_0                            
                RCHA =     9888750.0000                  RCHA =       27000.0000     RCHA_0                           
                 CHD =           0.0000                   CHD =           0.0000     CHD_0                            

            TOTAL IN =    19504930.2627              TOTAL IN =       51782.1883

          OUT:                                     OUT:
          ----                                     ----
              STO-SS =           0.0000                STO-SS =           0.0000     STORAGE                          
      CSUB-CGELASTIC =           0.0000        CSUB-CGELASTIC =           0.0000     CSUB                             
        CSUB-ELASTIC =           0.0000          CSUB-ELASTIC =           0.0000     CSUB                             
      CSUB-INELASTIC =           0.0000        CSUB-INELASTIC =           0.0000     CSUB                             
      CSUB-WATERCOMP =           0.0000        CSUB-WATERCOMP =           0.0000     CSUB                             
                 WEL =    10957500.0000                   WEL =       30000.0000     WEL_0                            
                RCHA =           0.0000                  RCHA =           0.0000     RCHA_0                           
                 CHD =     8547430.2836                   CHD =       21782.1883     CHD_0                            

           TOTAL OUT =    19504930.2836             TOTAL OUT =       51782.1883

            IN - OUT =      -2.0924E-02              IN - OUT =      -4.0106E-05

 PERCENT DISCREPANCY =          -0.00     PERCENT DISCREPANCY =          -0.00




         TIME SUMMARY AT END OF TIME STEP    6 IN STRESS PERIOD    2
                    SECONDS     MINUTES      HOURS       DAYS        YEARS
                    -----------------------------------------------------------
   TIME STEP LENGTH 9.18555E+06 1.53093E+05  2551.5      106.31     0.29107    
 STRESS PERIOD TIME 3.15576E+07 5.25960E+05  8766.0      365.25      1.0000    
         TOTAL TIME 3.16440E+07 5.27400E+05  8790.0      366.25      1.0027    


end timestep


start timestep kper="3" kstp="1" mode="normal"


 OUTPUT CONTROL FOR STRESS PERIOD 3 IS REPEATED USING SETTINGS FROM A PREVIOUS STRESS PERIOD.


 STRESS PERIOD 3 IS TRANSIENT


 REUSING CSUBS FROM LAST STRESS PERIOD

end timestep


start timestep kper="3" kstp="2" mode="normal"


end timestep


start timestep kper="3" kstp="3" mode="normal"


end timestep


start timestep kper="3" kstp="4" mode="normal"


end timestep


start timestep kper="3" kstp="5" mode="normal"


end timestep


start timestep kper="3" kstp="6" mode="normal"

 UBDSV1 SAVING  CSUB-CGELASTIC  ON UNIT   1022 AT TIME STEP      6, STRESS PERIOD      3
 UBDSV06 SAVING    CSUB-ELASTIC  IN MODEL CSUB_SUB03B      PACKAGE CSUB_SUB03B     CONNECTED TO MODEL CSUB_SUB03B      PACKAGE CSUB             ON UNIT   1022 AT TIME STEP      6, STRESS PERIOD      3
 UBDSV06 SAVING  CSUB-INELASTIC  IN MODEL CSUB_SUB03B      PACKAGE CSUB_SUB03B     CONNECTED TO MODEL CSUB_SUB03B      PACKAGE CSUB             ON UNIT   1022 AT TIME STEP      6, STRESS PERIOD      3
 UBDSV1 SAVING  CSUB-WATERCOMP  ON UNIT   1022 AT TIME STEP      6, STRESS PERIOD      3

 WEL PACKAGE (WEL_0) FLOW RATES   PERIOD      3   STEP        6
 -----------------------------------------------
   NUMBER   CELLID                    RATE      
 -----------------------------------------------
     1      (3,3,6)              -14000.000     
     2      (3,3,7)              -8000.0000     
     3      (3,4,6)              -5000.0000     
     4      (3,4,7)              -3000.0000     
 -----------------------------------------------




 CSUB-COMPACTION WILL BE SAVED ON UNIT 1018 AT END OF TIME STEP    6, STRESS PERIOD    3
1
  HEAD IN LAYER   1 AT END OF TIME STEP   6 IN STRESS PERIOD    3
  ---------------------------------------------------------------------------

                1               2               3               4               5               6               7               8               9              10
 ................................................................................................................................................................
   1      20.4104         19.9800         19.1637         18.6373         18.3641         18.3300         18.5379         19.0075         19.7814         20.1889    
   2      19.2375         18.6265         18.1018         17.7191         17.5006         17.4549         17.5849         17.8879         18.3493         18.9235    
   3      17.6083         17.0131         16.5548         16.2281         16.0312         15.9638         16.0270         16.2217         16.5547         17.0537    
   4      15.4515         14.9331         14.5616         14.3001         14.1318         14.0473         14.0381         14.0906         14.1818         14.2697    
   5      12.4490         12.3386         12.2007         12.0736         11.9751         11.9118         11.8831         11.8823         11.8974         11.9126    
   6      9.95343         9.91651         9.85845         9.79587         9.74147         9.70259         9.68116         9.67444         9.67634         9.67986    
   7      7.65836         7.63153         7.58702         7.53837         7.49906         7.47703         7.47399         7.48553         7.50195         7.51343    
   8      5.51207         5.46128         5.37656         5.28795         5.23203         5.22008         5.25308         5.32173         5.39160         5.43443    
   9      3.59995         3.46311         3.21860         2.94368         2.82584         2.82007         2.92647         3.19009         3.42585         3.55795    
  10      2.25685         1.92497         1.21205         0.00000         0.00000         0.00000         0.00000         1.19962         1.90416         2.23179    
1
  HEAD IN LAYER   2 AT END OF TIME STEP   6 IN STRESS PERIOD    3
  ---------------------------------------------------------------------------

                1               2               3               4               5               6               7               8               9              10
 ................................................................................................................................................................
   1      2.73258         2.76925         2.78880         2.79455         2.78918         2.77456         2.75153         2.71956         2.67676         2.62019    
   2      2.51145         4.32361         4.15172         3.69379         3.23347         2.89500         2.95543         3.30077         3.53306         2.33250    
   3      2.22042         3.50709         3.13803         2.36737         1.25343       -0.275806        0.122097         1.42530         2.23375         1.99506    
   4      1.87665         2.72913         2.41887         1.85561         1.13399        0.306680        0.436978         1.09010         1.56057         1.63541    
   5      1.49577         1.90022         1.76495         1.51717         1.25097         1.03801         1.00967         1.11835         1.24081         1.27160    
   6      1.09877         1.09621         1.01498        0.912188        0.810687        0.734430        0.704119        0.714591        0.759288        0.906818    
   7     0.700429        0.248498        0.140970        8.569620E-02    3.916534E-02    7.051147E-03   -5.612488E-03    2.743855E-03    8.113042E-02    0.546130    
   8     0.315451       -0.636821       -0.822655       -0.886108       -0.924578       -0.938922       -0.927339       -0.886253       -0.719914        0.199693    
   9    -4.044114E-02    -1.44681        -1.75690        -1.90116        -1.96527        -1.97281        -1.92322        -1.79208        -1.49527       -0.118506    
  10    -0.352529       -0.419048       -0.473197       -0.513080       -0.535252       -0.539814       -0.526772       -0.496042       -0.451053       -0.393708    
1
  HEAD IN LAYER   3 AT END OF TIME STEP   6 IN STRESS PERIOD    3
  ---------------------------------------------------------------------------

                1               2               3               4               5               6               7               8               9              10
 ................................................................................................................................................................
   1     -8.84120        -8.96711        -9.20398        -9.51648        -9.84265        -10.0926        -10.1746        -10.1145        -10.0089        -9.93617    
   2     -9.09004        -9.29719        -9.71437        -10.3252        -11.0635        -11.7225        -11.7225        -11.2782        -10.8524        -10.6142    
   3     -9.29363        -9.62290        -10.3435        -11.5953        -13.6640        -17.1296        -16.2042        -13.4925        -12.0333        -11.3900    
   4     -8.97760        -9.24081        -9.79420        -10.6848        -11.9767        -13.7249        -13.3898        -12.0235        -11.1459        -10.7211    
   5     -8.33269        -8.47008        -8.73975        -9.12076        -9.55850        -9.92649        -9.95538        -9.73638        -9.50351        -9.36602    
   6     -7.71972        -7.77896        -7.88984        -8.03521        -8.18600        -8.30161        -8.34253        -8.31890        -8.27284        -8.24018    
   7     -7.29303        -7.31683        -7.35945        -7.41330        -7.46785        -7.51137        -7.53543        -7.54088        -7.53597        -7.53003    
   8     -7.05543        -7.06472        -7.07982        -7.09845        -7.11826        -7.13555        -7.14730        -7.15295        -7.15390        -7.15244    
   9     -6.92665        -6.93342        -6.94297        -6.95395        -6.96498        -6.97464        -6.98175        -6.98575        -6.98676        -6.98542    
  10     -6.85778        -6.86121        -6.86704        -6.87419        -6.88163        -6.88840        -6.89380        -6.89747        -6.89944        -6.90008    

 HEAD WILL BE SAVED ON UNIT 1023 AT END OF TIME STEP    6, STRESS PERIOD    3


  VOLUME BUDGET FOR ENTIRE MODEL AT END OF TIME STEP    6, STRESS PERIOD   3
  ---------------------------------------------------------------------------------------------------

     CUMULATIVE VOLUME      L**3       RATES FOR THIS TIME STEP      L**3/T          PACKAGE NAME    
     ------------------                 ------------------------                     ----------------

           IN:                                      IN:
           ---                                      ---
              STO-SS =           0.0000                STO-SS =           0.0000     STORAGE                          
      CSUB-CGELASTIC =     1087078.0831        CSUB-CGELASTIC =         145.6835     CSUB                             
        CSUB-ELASTIC =     3328737.9973          CSUB-ELASTIC =         113.6080     CSUB                             
      CSUB-INELASTIC =    14083898.3629        CSUB-INELASTIC =       23890.7489     CSUB                             
      CSUB-WATERCOMP =           0.0000        CSUB-WATERCOMP =           0.0000     CSUB                             
                 WEL =           0.0000                   WEL =           0.0000     WEL_0                            
                RCHA =    19750500.0000                  RCHA =       27000.0000     RCHA_0                           
                 CHD =        2704.5785                   CHD =          12.6895     CHD_0                            

            TOTAL IN =    38252919.0219              TOTAL IN =       51162.7299

          OUT:                                     OUT:
          ----                                     ----
              STO-SS =           0.0000                STO-SS =           0.0000     STORAGE                          
      CSUB-CGELASTIC =           0.0000        CSUB-CGELASTIC =           0.0000     CSUB                             
        CSUB-ELASTIC =           0.0000          CSUB-ELASTIC =           0.0000     CSUB                             
      CSUB-INELASTIC =           0.0000        CSUB-INELASTIC =           0.0000     CSUB                             
      CSUB-WATERCOMP =           0.0000        CSUB-WATERCOMP =           0.0000     CSUB                             
                 WEL =    21915000.0000                   WEL =       30000.0000     WEL_0                            
                RCHA =           0.0000                  RCHA =           0.0000     RCHA_0                           
                 CHD =    16337919.0535                   CHD =       21162.7300     CHD_0                            

           TOTAL OUT =    38252919.0535             TOTAL OUT =       51162.7300

            IN - OUT =      -3.1666E-02              IN - OUT =      -2.6421E-05

 PERCENT DISCREPANCY =          -0.00     PERCENT DISCREPANCY =          -0.00




         TIME SUMMARY AT END OF TIME STEP    6 IN STRESS PERIOD    3
                    SECONDS     MINUTES      HOURS       DAYS        YEARS
                    -----------------------------------------------------------
   TIME STEP LENGTH 9.18555E+06 1.53093E+05  2551.5      106.31     0.29107    
 STRESS PERIOD TIME 3.15576E+07 5.25960E+05  8766.0      365.25      1.0000    
         TOTAL TIME 6.32016E+07 1.05336E+06  17556.      731.50      2.0027    


end timestep


start timestep kper="4" kstp="1" mode="normal"


 OUTPUT CONTROL FOR STRESS PERIOD 4 IS REPEATED USING SETTINGS FROM A PREVIOUS STRESS PERIOD.


 STRESS PERIOD 4 IS TRANSIENT


 REUSING CSUBS FROM LAST STRESS PERIOD

end timestep


start timestep kper="4" kstp="2" mode="normal"


end timestep


start timestep kper="4" kstp="3" mode="normal"


end timestep


start timestep kper="4" kstp="4" mode="normal"


end timestep


start timestep kper="4" kstp="5" mode="normal"


end timestep


start timestep kper="4" kstp="6" mode="normal"

 UBDSV1 SAVING  CSUB-CGELASTIC  ON UNIT   1022 AT TIME STEP      6, STRESS PERIOD      4
 UBDSV06 SAVING    CSUB-ELASTIC  IN MODEL CSUB_SUB03B      PACKAGE CSUB_SUB03B     CONNECTED TO MODEL CSUB_SUB03B      PACKAGE CSUB             ON UNIT   1022 AT TIME STEP      6, STRESS PERIOD      4
 UBDSV06 SAVING  CSUB-INELASTIC  IN MODEL CSUB_SUB03B      PACKAGE CSUB_SUB03B     CONNECTED TO MODEL CSUB_SUB03B      PACKAGE CSUB             ON UNIT   1022 AT TIME STEP      6, STRESS PERIOD      4
 UBDSV1 SAVING  CSUB-WATERCOMP  ON UNIT   1022 AT TIME STEP      6, STRESS PERIOD      4

 WEL PACKAGE (WEL_0) FLOW RATES   PERIOD      4   STEP        6
 -----------------------------------------------
   NUMBER   CELLID                    RATE      
 -----------------------------------------------
     1      (3,3,6)              -14000.000     
     2      (3,3,7)              -8000.0000     
     3      (3,4,6)              -5000.0000     
     4      (3,4,7)              -3000.0000     
 -----------------------------------------------




 CSUB-COMPACTION WILL BE SAVED ON UNIT 1018 AT END OF TIME STEP    6, STRESS PERIOD    4
1
  HEAD IN LAYER   1 AT END OF TIME STEP   6 IN STRESS PERIOD    4
  ---------------------------------------------------------------------------

                1               2               3               4               5               6               7               8               9              10
 ................................................................................................................................................................
   1      20.2620         19.8316         19.0152         18.4886         18.2153         18.1811         18.3889         18.8585         19.6324         20.0399    
   2      19.0924         18.4812         17.9563         17.5734         17.3547         17.3088         17.4387         17.7418         18.2033         18.7776    
   3      17.4700         16.8747         16.4161         16.0891         15.8920         15.8245         15.8876         16.0823         16.4155         16.9147    
   4      15.3237         14.8051         14.4334         14.1717         14.0032         13.9185         13.9092         13.9617         14.0530         14.1411    
   5      12.3349         12.2244         12.0863         11.9591         11.8604         11.7970         11.7682         11.7673         11.7825         11.7978    
   6      9.85577         9.81888         9.76084         9.69826         9.64380         9.60480         9.58322         9.57634         9.57811         9.58157    
   7      7.57924         7.55265         7.50845         7.46006         7.42085         7.39874         7.39543         7.40659         7.42262         7.43382    
   8      5.45262         5.40250         5.31876         5.23109         5.17566         5.16365         5.19605         5.26367         5.33250         5.37462    
   9      3.55943         3.42434         3.18277         2.91107         2.79455         2.78875         2.89377         3.15410         3.38688         3.51721    
  10      2.23023         1.90229         1.19778         0.00000         0.00000         0.00000         0.00000         1.18528         1.88135         2.20502    
1
  HEAD IN LAYER   2 AT END OF TIME STEP   6 IN STRESS PERIOD    4
  ---------------------------------------------------------------------------

                1               2               3               4               5               6               7               8               9              10
 ................................................................................................................................................................
   1      2.12335         2.15474         2.16981         2.17196         2.16392         2.14766         2.12412         2.09284         2.05200         1.99867    
   2      1.92647         3.60790         3.40373         2.92540         2.44450         2.08780         2.13547         2.47553         2.73251         1.72910    
   3      1.66372         2.81294         2.40722         1.61179        0.472131        -1.07974       -0.694245        0.607487         1.44656         1.41615    
   4      1.35234         2.09482         1.75351         1.16830        0.424151       -0.422788       -0.304353        0.345833        0.840610         1.08744    
   5      1.00709         1.35786         1.20372        0.940086        0.657548        0.430129        0.391385        0.494943        0.629139        0.759910    
   6     0.647295        0.662032        0.575970        0.462910        0.350199        0.263657        0.225159        0.230057        0.273250        0.434545    
   7     0.285571       -7.769205E-02   -0.176906       -0.238149       -0.292142       -0.331322       -0.349969       -0.346852       -0.281818        0.113777    
   8    -6.553618E-02   -0.869721        -1.03689        -1.10293        -1.14577        -1.16443        -1.15682        -1.12044       -0.976687       -0.194798    
   9    -0.392189        -1.62531        -1.91062        -2.05269        -2.11714        -2.12586        -2.07819        -1.95126        -1.68097       -0.479330    
  10    -0.680659       -0.742519       -0.793279       -0.831052       -0.852426       -0.857495       -0.846271       -0.818680       -0.778126       -0.726509    
1
  HEAD IN LAYER   3 AT END OF TIME STEP   6 IN STRESS PERIOD    4
  ---------------------------------------------------------------------------

                1               2               3               4               5               6               7               8               9              10
 ................................................................................................................................................................
   1     -10.1448        -10.2838        -10.5450        -10.8890        -11.2493        -11.5307        -11.6380        -11.5954        -11.5001        -11.4321    
   2     -10.3840        -10.6066        -11.0522        -11.7001        -12.4782        -13.1727        -13.1980        -12.7680        -12.3487        -12.1126    
   3     -10.5407        -10.8877        -11.6413        -12.9372        -15.0545        -18.5637        -17.6616        -14.9559        -13.4959        -12.8507    
   4     -10.1098        -10.3890        -10.9720        -11.9017        -13.2357        -15.0213        -14.7085        -13.3507        -12.4747        -12.0493    
   5     -9.28606        -9.43539        -9.72700        -10.1365        -10.6046        -10.9997        -11.0482        -10.8408        -10.6135        -10.4780    
   6     -8.46117        -8.52860        -8.65458        -8.81950        -8.99117        -9.12598        -9.18224        -9.16930        -9.12963        -9.09986    
   7     -7.82326        -7.85255        -7.90541        -7.97254        -8.04128        -8.09804        -8.13311        -8.14673        -8.14712        -8.14382    
   8     -7.40073        -7.41442        -7.43758        -7.46625        -7.49574        -7.52142        -7.54008        -7.55097        -7.55544        -7.55586    
   9     -7.15823        -7.16574        -7.17699        -7.19028        -7.20379        -7.21579        -7.22497        -7.23073        -7.23309        -7.23267    
  10     -7.05068        -7.05385        -7.05927        -7.06598        -7.07300        -7.07950        -7.08481        -7.08854        -7.09064        -7.09141    

 HEAD WILL BE SAVED ON UNIT 1023 AT END OF TIME STEP    6, STRESS PERIOD    4


  VOLUME BUDGET FOR ENTIRE MODEL AT END OF TIME STEP    6, STRESS PERIOD   4
  ---------------------------------------------------------------------------------------------------

     CUMULATIVE VOLUME      L**3       RATES FOR THIS TIME STEP      L**3/T          PACKAGE NAME    
     ------------------                 ------------------------                     ----------------

           IN:                                      IN:
           ---                                      ---
              STO-SS =           0.0000                STO-SS =           0.0000     STORAGE                          
      CSUB-CGELASTIC =     1131134.6012        CSUB-CGELASTIC =         110.2782     CSUB                             
        CSUB-ELASTIC =     3353167.8445          CSUB-ELASTIC =          53.6902     CSUB                             
      CSUB-INELASTIC =    22779218.1934        CSUB-INELASTIC =       23736.0817     CSUB                             
      CSUB-WATERCOMP =           0.0000        CSUB-WATERCOMP =           0.0000     CSUB                             
                 WEL =           0.0000                   WEL =           0.0000     WEL_0                            
                RCHA =    29612250.0000                  RCHA =       27000.0000     RCHA_0                           
                 CHD =        9082.8290                   CHD =          20.3235     CHD_0                            

            TOTAL IN =    56884853.4681              TOTAL IN =       50920.3736

          OUT:                                     OUT:
          ----                                     ----
              STO-SS =           0.0000                STO-SS =           0.0000     STORAGE                          
      CSUB-CGELASTIC =           0.0000        CSUB-CGELASTIC =           0.0000     CSUB                             
        CSUB-ELASTIC =           0.0000          CSUB-ELASTIC =           0.0000     CSUB                             
      CSUB-INELASTIC =           0.0000        CSUB-INELASTIC =           0.0000     CSUB                             
      CSUB-WATERCOMP =           0.0000        CSUB-WATERCOMP =           0.0000     CSUB                             
                 WEL =    32872500.0000                   WEL =       30000.0000     WEL_0                            
                RCHA =           0.0000                  RCHA =           0.0000     RCHA_0                           
                 CHD =    24012353.5087                   CHD =       20920.3736     CHD_0                            

           TOTAL OUT =    56884853.5087             TOTAL OUT =       50920.3736

            IN - OUT =      -4.0669E-02              IN - OUT =      -2.3912E-05

 PERCENT DISCREPANCY =          -0.00     PERCENT DISCREPANCY =          -0.00




         TIME SUMMARY AT END OF TIME STEP    6 IN STRESS PERIOD    4
                    SECONDS     MINUTES      HOURS       DAYS        YEARS
                    -----------------------------------------------------------
   TIME STEP LENGTH 9.18555E+06 1.53093E+05  2551.5      106.31     0.29107    
 STRESS PERIOD TIME 3.15576E+07 5.25960E+05  8766.0      365.25      1.0000    
         TOTAL TIME 9.47592E+07 1.57932E+06  26322.      1096.8      3.0027    


end timestep


start timestep kper="5" kstp="1" mode="normal"


 OUTPUT CONTROL FOR STRESS PERIOD 5 IS REPEATED USING SETTINGS FROM A PREVIOUS STRESS PERIOD.


 STRESS PERIOD 5 IS TRANSIENT


 REUSING CSUBS FROM LAST STRESS PERIOD

end timestep


start timestep kper="5" kstp="2" mode="normal"


end timestep


start timestep kper="5" kstp="3" mode="normal"


end timestep


start timestep kper="5" kstp="4" mode="normal"


end timestep


start timestep kper="5" kstp="5" mode="normal"


end timestep


start timestep kper="5" kstp="6" mode="normal"

 UBDSV1 SAVING  CSUB-CGELASTIC  ON UNIT   1022 AT TIME STEP      6, STRESS PERIOD      5
 UBDSV06 SAVING    CSUB-ELASTIC  IN MODEL CSUB_SUB03B      PACKAGE CSUB_SUB03B     CONNECTED TO MODEL CSUB_SUB03B      PACKAGE CSUB             ON UNIT   1022 AT TIME STEP      6, STRESS PERIOD      5
 UBDSV06 SAVING  CSUB-INELASTIC  IN MODEL CSUB_SUB03B      PACKAGE CSUB_SUB03B     CONNECTED TO MODEL CSUB_SUB03B      PACKAGE CSUB             ON UNIT   1022 AT TIME STEP      6, STRESS PERIOD      5
 UBDSV1 SAVING  CSUB-WATERCOMP  ON UNIT   1022 AT TIME STEP      6, STRESS PERIOD      5

 WEL PACKAGE (WEL_0) FLOW RATES   PERIOD      5   STEP        6
 -----------------------------------------------
   NUMBER   CELLID                    RATE      
 -----------------------------------------------
     1      (3,3,6)              -14000.000     
     2      (3,3,7)              -8000.0000     
     3      (3,4,6)              -5000.0000     
     4      (3,4,7)              -3000.0000     
 -----------------------------------------------




 CSUB-COMPACTION WILL BE SAVED ON UNIT 1018 AT END OF TIME STEP    6, STRESS PERIOD    5
1
  HEAD IN LAYER   1 AT END OF TIME STEP   6 IN STRESS PERIOD    5
  ---------------------------------------------------------------------------

                1               2               3               4               5               6               7               8               9              10
 ................................................................................................................................................................
   1     -1.34127        -1.34176        -1.34253        -1.34340        -1.34418        -1.34478        -1.34514        -1.34526        -1.34520        -1.34506    
   2     -1.31479        -1.31587        -1.31730        -1.31871        -1.31979        -1.32053        -1.32085        -1.32076        -1.32027        -1.31936    
   3     -1.25987        -1.26126        -1.26303        -1.26463        -1.26595        -1.26689        -1.26720        -1.26692        -1.26619        -1.26504    
   4     -1.17561        -1.17682        -1.17849        -1.18023        -1.18159        -1.18256        -1.18300        -1.18290        -1.18230        -1.18118    
   5     -1.06285        -1.06342        -1.06432        -1.06543        -1.06659        -1.06761        -1.06831        -1.06860        -1.06847        -1.06802    
   6    -0.924216       -0.923805       -0.923412       -0.923273       -0.923561       -0.924316       -0.925425       -0.926658       -0.927721       -0.928350    
   7    -0.763415       -0.761345       -0.758474       -0.755882       -0.754592       -0.755104       -0.757353       -0.760730       -0.764130       -0.766435    
   8    -0.586684       -0.580619       -0.571167       -0.561814       -0.556730       -0.557059       -0.562770       -0.572658       -0.582498       -0.588765    
   9    -0.409388       -0.392491       -0.362931       -0.330035       -0.316454       -0.316638       -0.330585       -0.363850       -0.393700       -0.410761    
  10    -0.274126       -0.233795       -0.147222         0.00000         0.00000         0.00000         0.00000       -0.147679       -0.234564       -0.275058    
1
  HEAD IN LAYER   2 AT END OF TIME STEP   6 IN STRESS PERIOD    5
  ---------------------------------------------------------------------------

                1               2               3               4               5               6               7               8               9              10
 ................................................................................................................................................................
   1     -6.01319        -6.04089        -6.06632        -6.08876        -6.10718        -6.12057        -6.12811        -6.12949        -6.12482        -6.11434    
   2     -5.89482        -6.44064        -6.72700        -7.00154        -7.02218        -7.04993        -7.05149        -7.03400        -7.01215        -6.05066    
   3     -5.76151        -6.51300        -6.95467        -7.03757        -7.13618        -7.33110        -7.27930        -7.13276        -7.04743        -5.95211    
   4     -5.60869        -6.19536        -6.56267        -6.99466        -7.04337        -7.12679        -7.11190        -7.04954        -7.00718        -5.80822    
   5     -5.44084        -5.64450        -5.81807        -6.03018        -6.26122        -6.45109        -6.48191        -6.38684        -6.20696        -5.62717    
   6     -5.26847        -5.09630        -5.13492        -5.21954        -5.30985        -5.38179        -5.41418        -5.41157        -5.39940        -5.42930    
   7     -5.10253        -4.64319        -4.60402        -4.63413        -4.67052        -4.70223        -4.72404        -4.73922        -4.80338        -5.23276    
   8     -4.95174        -4.29898        -4.21510        -4.21994        -4.23371        -4.24892        -4.26375        -4.28260        -4.38430        -5.05002    
   9     -4.82213        -4.07664        -3.96883        -3.95500        -3.95615        -3.96391        -3.97749        -4.00395        -4.12325        -4.88864    
  10     -4.71722        -4.69668        -4.68195        -4.67321        -4.67083        -4.67476        -4.68500        -4.70156        -4.72410        -4.75245    
1
  HEAD IN LAYER   3 AT END OF TIME STEP   6 IN STRESS PERIOD    5
  ---------------------------------------------------------------------------

                1               2               3               4               5               6               7               8               9              10
 ................................................................................................................................................................
   1     -11.4786        -11.6251        -11.8991        -12.2593        -12.6366        -12.9336        -13.0530        -13.0185        -12.9277        -12.8612    
   2     -11.6970        -11.9309        -12.3924        -13.0589        -13.8560        -14.5672        -14.6043        -14.1808        -13.7634        -13.5252    
   3     -11.7913        -12.1504        -12.9217        -14.2385        -16.3779        -19.9067        -19.0154        -16.3126        -14.8518        -14.2036    
   4     -11.2467        -11.5361        -12.1346        -13.0831        -14.4364        -16.2387        -15.9362        -14.5824        -13.7067        -13.2793    
   5     -10.2672        -10.4231        -10.7256        -11.1487        -11.6310        -12.0387        -12.0964        -11.8943        -11.6693        -11.5340    
   6     -9.26678        -9.33742        -9.46973        -9.64316        -9.82427        -9.96811        -10.0319        -10.0247        -9.98876        -9.96105    
   7     -8.45724        -8.48691        -8.54252        -8.61441        -8.68912        -8.75224        -8.79337        -8.81241        -8.81737        -8.81753    
   8     -7.88683        -7.89875        -7.92214        -7.95306        -7.98624        -8.01650        -8.04018        -8.05621        -8.06581        -8.07080    
   9     -7.53613        -7.54087        -7.55124        -7.56557        -7.58165        -7.59730        -7.61086        -7.62148        -7.62903        -7.63363    
  10     -7.37281        -7.37607        -7.38237        -7.39099        -7.40083        -7.41076        -7.41979        -7.42717        -7.43244        -7.43526    

 HEAD WILL BE SAVED ON UNIT 1023 AT END OF TIME STEP    6, STRESS PERIOD    5


  VOLUME BUDGET FOR ENTIRE MODEL AT END OF TIME STEP    6, STRESS PERIOD   5
  ---------------------------------------------------------------------------------------------------

     CUMULATIVE VOLUME      L**3       RATES FOR THIS TIME STEP      L**3/T          PACKAGE NAME    
     ------------------                 ------------------------                     ----------------

           IN:                                      IN:
           ---                                      ---
              STO-SS =           0.0000                STO-SS =           0.0000     STORAGE                          
      CSUB-CGELASTIC =     1450928.2116        CSUB-CGELASTIC =         156.0749     CSUB                             
        CSUB-ELASTIC =     4359927.0251          CSUB-ELASTIC =         245.1095     CSUB                             
      CSUB-INELASTIC =    32463463.8077        CSUB-INELASTIC =       27013.2734     CSUB                             
      CSUB-WATERCOMP =           0.0000        CSUB-WATERCOMP =           0.0000     CSUB                             
                 WEL =           0.0000                   WEL =           0.0000     WEL_0                            
                RCHA =    29612250.0000                  RCHA =           0.0000     RCHA_0                           
                 CHD =      529041.5752                   CHD =        2585.5421     CHD_0                            

            TOTAL IN =    68415610.6195              TOTAL IN =       30000.0000

          OUT:                                     OUT:
          ----                                     ----
              STO-SS =           0.0000                STO-SS =           0.0000     STORAGE                          
      CSUB-CGELASTIC =           0.0000        CSUB-CGELASTIC =           0.0000     CSUB                             
        CSUB-ELASTIC =           0.0000          CSUB-ELASTIC =           0.0000     CSUB                             
      CSUB-INELASTIC =           0.0000        CSUB-INELASTIC =           0.0000     CSUB                             
      CSUB-WATERCOMP =           0.0000        CSUB-WATERCOMP =           0.0000     CSUB                             
                 WEL =    43830000.0000                   WEL =       30000.0000     WEL_0                            
                RCHA =           0.0000                  RCHA =           0.0000     RCHA_0                           
                 CHD =    24585610.6691                   CHD =           0.0000     CHD_0                            

           TOTAL OUT =    68415610.6691             TOTAL OUT =       30000.0000

            IN - OUT =      -4.9668E-02              IN - OUT =      -2.5509E-05

 PERCENT DISCREPANCY =          -0.00     PERCENT DISCREPANCY =          -0.00




         TIME SUMMARY AT END OF TIME STEP    6 IN STRESS PERIOD    5
                    SECONDS     MINUTES      HOURS       DAYS        YEARS
                    -----------------------------------------------------------
   TIME STEP LENGTH 9.18555E+06 1.53093E+05  2551.5      106.31     0.29107    
 STRESS PERIOD TIME 3.15576E+07 5.25960E+05  8766.0      365.25      1.0000    
         TOTAL TIME 1.26317E+08 2.10528E+06  35088.      1462.0      4.0027    


end timestep


start timestep kper="6" kstp="1" mode="normal"


 OUTPUT CONTROL FOR STRESS PERIOD 6 IS REPEATED USING SETTINGS FROM A PREVIOUS STRESS PERIOD.


 STRESS PERIOD 6 IS TRANSIENT


 REUSING CSUBS FROM LAST STRESS PERIOD

end timestep


start timestep kper="6" kstp="2" mode="normal"


end timestep


start timestep kper="6" kstp="3" mode="normal"


end timestep


start timestep kper="6" kstp="4" mode="normal"


end timestep


start timestep kper="6" kstp="5" mode="normal"


end timestep


start timestep kper="6" kstp="6" mode="normal"

 UBDSV1 SAVING  CSUB-CGELASTIC  ON UNIT   1022 AT TIME STEP      6, STRESS PERIOD      6
 UBDSV06 SAVING    CSUB-ELASTIC  IN MODEL CSUB_SUB03B      PACKAGE CSUB_SUB03B     CONNECTED TO MODEL CSUB_SUB03B      PACKAGE CSUB             ON UNIT   1022 AT TIME STEP      6, STRESS PERIOD      6
 UBDSV06 SAVING  CSUB-INELASTIC  IN MODEL CSUB_SUB03B      PACKAGE CSUB_SUB03B     CONNECTED TO MODEL CSUB_SUB03B      PACKAGE CSUB             ON UNIT   1022 AT TIME STEP      6, STRESS PERIOD      6
 UBDSV1 SAVING  CSUB-WATERCOMP  ON UNIT   1022 AT TIME STEP      6, STRESS PERIOD      6

 WEL PACKAGE (WEL_0) FLOW RATES   PERIOD      6   STEP        6
 -----------------------------------------------
   NUMBER   CELLID                    RATE      
 -----------------------------------------------
     1      (3,3,6)              -14000.000     
     2      (3,3,7)              -8000.0000     
     3      (3,4,6)              -5000.0000     
     4      (3,4,7)              -3000.0000     
 -----------------------------------------------




 CSUB-COMPACTION WILL BE SAVED ON UNIT 1018 AT END OF TIME STEP    6, STRESS PERIOD    6
1
  HEAD IN LAYER   1 AT END OF TIME STEP   6 IN STRESS PERIOD    6
  ---------------------------------------------------------------------------

                1               2               3               4               5               6               7               8               9              10
 ................................................................................................................................................................
   1     -1.54666        -1.54701        -1.54756        -1.54817        -1.54875        -1.54921        -1.54949        -1.54959        -1.54954        -1.54945    
   2     -1.51518        -1.51599        -1.51686        -1.51775        -1.51858        -1.51920        -1.51946        -1.51936        -1.51899        -1.51844    
   3     -1.45099        -1.45205        -1.45321        -1.45444        -1.45564        -1.45661        -1.45684        -1.45644        -1.45574        -1.45489    
   4     -1.35360        -1.35463        -1.35583        -1.35700        -1.35813        -1.35903        -1.35939        -1.35923        -1.35869        -1.35789    
   5     -1.22360        -1.22409        -1.22482        -1.22571        -1.22671        -1.22763        -1.22827        -1.22858        -1.22849        -1.22805    
   6     -1.06349        -1.06296        -1.06238        -1.06204        -1.06218        -1.06289        -1.06404        -1.06539        -1.06657        -1.06727    
   7    -0.877567       -0.875175       -0.871826       -0.868767       -0.867190       -0.867680       -0.870175       -0.873980       -0.877826       -0.880429    
   8    -0.673301       -0.666343       -0.655492       -0.644743       -0.638872       -0.639194       -0.645677       -0.656946       -0.668171       -0.675319    
   9    -0.468749       -0.449409       -0.415593       -0.377973       -0.362421       -0.362603       -0.378518       -0.416502       -0.450602       -0.470100    
  10    -0.313088       -0.267000       -0.168103         0.00000         0.00000         0.00000         0.00000       -0.168555       -0.267761       -0.314009    
1
  HEAD IN LAYER   2 AT END OF TIME STEP   6 IN STRESS PERIOD    6
  ---------------------------------------------------------------------------

                1               2               3               4               5               6               7               8               9              10
 ................................................................................................................................................................
   1     -6.59832        -6.62917        -6.65694        -6.68093        -6.70018        -6.71363        -6.72041        -6.72019        -6.71307        -6.69927    
   2     -6.46399        -7.00712        -7.03513        -7.08196        -7.15407        -7.22623        -7.23037        -7.18683        -7.12603        -6.61823    
   3     -6.31136        -7.00914        -7.06612        -7.18959        -7.41927        -7.81810        -7.71687        -7.41251        -7.22293        -6.50001    
   4     -6.13640        -6.80386        -7.00968        -7.06690        -7.19744        -7.38917        -7.35724        -7.21347        -7.09811        -6.33409    
   5     -5.94379        -6.19826        -6.38026        -6.59032        -6.82464        -7.00106        -7.00311        -6.95620        -6.76976        -6.12972    
   6     -5.74525        -5.57392        -5.61486        -5.70210        -5.79536        -5.86988        -5.90422        -5.90384        -5.89049        -5.90652    
   7     -5.55319        -5.04424        -4.99816        -5.02905        -5.06717        -5.10086        -5.12468        -5.14216        -5.21409        -5.68426    
   8     -5.37779        -4.63092        -4.53155        -4.53516        -4.54954        -4.56614        -4.58299        -4.60525        -4.72310        -5.47700    
   9     -5.22634        -4.35788        -4.22827        -4.21041        -4.21087        -4.21962        -4.23579        -4.26786        -4.40947        -5.29368    
  10     -5.10325        -5.07904        -5.06154        -5.05095        -5.04768        -5.05169        -5.06296        -5.08152        -5.10695        -5.13906    
1
  HEAD IN LAYER   3 AT END OF TIME STEP   6 IN STRESS PERIOD    6
  ---------------------------------------------------------------------------

                1               2               3               4               5               6               7               8               9              10
 ................................................................................................................................................................
   1     -12.6250        -12.7756        -13.0572        -13.4275        -13.8156        -14.1226        -14.2498        -14.2206        -14.1328        -14.0677    
   2     -12.8201        -13.0588        -13.5288        -14.2069        -15.0169        -15.7398        -15.7846        -15.3649        -14.9491        -14.7119    
   3     -12.8612        -13.2258        -14.0074        -15.3390        -17.4956        -21.0401        -20.1555        -17.4523        -15.9895        -15.3405    
   4     -12.2274        -12.5219        -13.1295        -14.0902        -15.4577        -17.2726        -16.9765        -15.6240        -14.7477        -14.3202    
   5     -11.1294        -11.2890        -11.5982        -12.0300        -12.5218        -12.9380        -13.0015        -12.8026        -12.5790        -12.4440    
   6     -9.99740        -10.0704        -10.2070        -10.3861        -10.5733        -10.7229        -10.7914        -10.7874        -10.7535        -10.7266    
   7     -9.06101        -9.09198        -9.15014        -9.22553        -9.30420        -9.37125        -9.41588        -9.43768        -9.44458        -9.44577    
   8     -8.38331        -8.39585        -8.42070        -8.45376        -8.48953        -8.52252        -8.54880        -8.56708        -8.57839        -8.58441    
   9     -7.95574        -7.96077        -7.97202        -7.98779        -8.00568        -8.02335        -8.03893        -8.05137        -8.06040        -8.06594    
  10     -7.75282        -7.75646        -7.76359        -7.77341        -7.78478        -7.79639        -7.80711        -7.81601        -7.82244        -7.82591    

 HEAD WILL BE SAVED ON UNIT 1023 AT END OF TIME STEP    6, STRESS PERIOD    6


  VOLUME BUDGET FOR ENTIRE MODEL AT END OF TIME STEP    6, STRESS PERIOD   6
  ---------------------------------------------------------------------------------------------------

     CUMULATIVE VOLUME      L**3       RATES FOR THIS TIME STEP      L**3/T          PACKAGE NAME    
     ------------------                 ------------------------                     ----------------

           IN:                                      IN:
           ---                                      ---
              STO-SS =           0.0000                STO-SS =           0.0000     STORAGE                          
      CSUB-CGELASTIC =     1492755.5126        CSUB-CGELASTIC =         105.1987     CSUB                             
        CSUB-ELASTIC =     4382989.3476          CSUB-ELASTIC =          35.6450     CSUB                             
      CSUB-INELASTIC =    42312166.5977        CSUB-INELASTIC =       26909.7276     CSUB                             
      CSUB-WATERCOMP =           0.0000        CSUB-WATERCOMP =           0.0000     CSUB                             
                 WEL =           0.0000                   WEL =           0.0000     WEL_0                            
                RCHA =    29612250.0000                  RCHA =           0.0000     RCHA_0                           
                 CHD =     1572949.1527                   CHD =        2949.4287     CHD_0                            

            TOTAL IN =    79373110.6106              TOTAL IN =       30000.0000

          OUT:                                     OUT:
          ----                                     ----
              STO-SS =           0.0000                STO-SS =           0.0000     STORAGE                          
      CSUB-CGELASTIC =           0.0000        CSUB-CGELASTIC =           0.0000     CSUB                             
        CSUB-ELASTIC =           0.0000          CSUB-ELASTIC =           0.0000     CSUB                             
      CSUB-INELASTIC =           0.0000        CSUB-INELASTIC =           0.0000     CSUB                             
      CSUB-WATERCOMP =           0.0000        CSUB-WATERCOMP =           0.0000     CSUB                             
                 WEL =    54787500.0000                   WEL =       30000.0000     WEL_0                            
                RCHA =           0.0000                  RCHA =           0.0000     RCHA_0                           
                 CHD =    24585610.6691                   CHD =           0.0000     CHD_0                            

           TOTAL OUT =    79373110.6691             TOTAL OUT =       30000.0000

            IN - OUT =      -5.8530E-02              IN - OUT =      -2.5202E-05

 PERCENT DISCREPANCY =          -0.00     PERCENT DISCREPANCY =          -0.00




         TIME SUMMARY AT END OF TIME STEP    6 IN STRESS PERIOD    6
                    SECONDS     MINUTES      HOURS       DAYS        YEARS
                    -----------------------------------------------------------
   TIME STEP LENGTH 9.18555E+06 1.53093E+05  2551.5      106.31     0.29107    
 STRESS PERIOD TIME 3.15576E+07 5.25960E+05  8766.0      365.25      1.0000    
         TOTAL TIME 1.57874E+08 2.63124E+06  43854.      1827.2      5.0027    


end timestep


start timestep kper="7" kstp="1" mode="normal"


 OUTPUT CONTROL FOR STRESS PERIOD 7 IS REPEATED USING SETTINGS FROM A PREVIOUS STRESS PERIOD.


 STRESS PERIOD 7 IS TRANSIENT


 REUSING CSUBS FROM LAST STRESS PERIOD

end timestep


start timestep kper="7" kstp="2" mode="normal"


end timestep


start timestep kper="7" kstp="3" mode="normal"


end timestep


start timestep kper="7" kstp="4" mode="normal"


end timestep


start timestep kper="7" kstp="5" mode="normal"


end timestep


start timestep kper="7" kstp="6" mode="normal"

 UBDSV1 SAVING  CSUB-CGELASTIC  ON UNIT   1022 AT TIME STEP      6, STRESS PERIOD      7
 UBDSV06 SAVING    CSUB-ELASTIC  IN MODEL CSUB_SUB03B      PACKAGE CSUB_SUB03B     CONNECTED TO MODEL CSUB_SUB03B      PACKAGE CSUB             ON UNIT   1022 AT TIME STEP      6, STRESS PERIOD      7
 UBDSV06 SAVING  CSUB-INELASTIC  IN MODEL CSUB_SUB03B      PACKAGE CSUB_SUB03B     CONNECTED TO MODEL CSUB_SUB03B      PACKAGE CSUB             ON UNIT   1022 AT TIME STEP      6, STRESS PERIOD      7
 UBDSV1 SAVING  CSUB-WATERCOMP  ON UNIT   1022 AT TIME STEP      6, STRESS PERIOD      7

 WEL PACKAGE (WEL_0) FLOW RATES   PERIOD      7   STEP        6
 -----------------------------------------------
   NUMBER   CELLID                    RATE      
 -----------------------------------------------
     1      (3,3,6)              -14000.000     
     2      (3,3,7)              -8000.0000     
     3      (3,4,6)              -5000.0000     
     4      (3,4,7)              -3000.0000     
 -----------------------------------------------




 CSUB-COMPACTION WILL BE SAVED ON UNIT 1018 AT END OF TIME STEP    6, STRESS PERIOD    7
1
  HEAD IN LAYER   1 AT END OF TIME STEP   6 IN STRESS PERIOD    7
  ---------------------------------------------------------------------------

                1               2               3               4               5               6               7               8               9              10
 ................................................................................................................................................................
   1     -1.61537        -1.61570        -1.61626        -1.61691        -1.61756        -1.61809        -1.61843        -1.61858        -1.61857        -1.61852    
   2     -1.58226        -1.58289        -1.58375        -1.58475        -1.58575        -1.58653        -1.58688        -1.58682        -1.58650        -1.58606    
   3     -1.51544        -1.51632        -1.51748        -1.51887        -1.52035        -1.52158        -1.52187        -1.52140        -1.52065        -1.51986    
   4     -1.41443        -1.41531        -1.41636        -1.41754        -1.41876        -1.41977        -1.42016        -1.41997        -1.41946        -1.41880    
   5     -1.27968        -1.28017        -1.28081        -1.28155        -1.28226        -1.28296        -1.28356        -1.28394        -1.28404        -1.28374    
   6     -1.11313        -1.11258        -1.11193        -1.11148        -1.11151        -1.11214        -1.11328        -1.11467        -1.11591        -1.11663    
   7    -0.919131       -0.916632       -0.913105       -0.909860       -0.908156       -0.908618       -0.911191       -0.915146       -0.919145       -0.921838    
   8    -0.705555       -0.698257       -0.686865       -0.675574       -0.669392       -0.669703       -0.676477       -0.688271       -0.700020       -0.707496    
   9    -0.491417       -0.471123       -0.435647       -0.396181       -0.379858       -0.380036       -0.396714       -0.436535       -0.472287       -0.492731    
  10    -0.328361       -0.280022       -0.176299         0.00000         0.00000         0.00000         0.00000       -0.176741       -0.280765       -0.329259    
1
  HEAD IN LAYER   2 AT END OF TIME STEP   6 IN STRESS PERIOD    7
  ---------------------------------------------------------------------------

                1               2               3               4               5               6               7               8               9              10
 ................................................................................................................................................................
   1     -6.93452        -6.96308        -6.98722        -7.00621        -7.01988        -7.02899        -7.03320        -7.03202        -7.02547        -7.01382    
   2     -6.80395        -7.08063        -7.14422        -7.23081        -7.34783        -7.45894        -7.46575        -7.39988        -7.31175        -6.94247    
   3     -6.65114        -7.08503        -7.19826        -7.39521        -7.73933        -8.31175        -8.16977        -7.73093        -7.45617        -6.82839    
   4     -6.47268        -7.01878        -7.07960        -7.19529        -7.40071        -7.68502        -7.63926        -7.42606        -7.25448        -6.66162    
   5     -6.27353        -6.60509        -6.79573        -6.99669        -7.01780        -7.04632        -7.05277        -7.03583        -7.01260        -6.45273    
   6     -6.06575        -5.93427        -5.98157        -6.07077        -6.16267        -6.23641        -6.27228        -6.27359        -6.25759        -6.22227    
   7     -5.86302        -5.35524        -5.30944        -5.34146        -5.38093        -5.41602        -5.44116        -5.45973        -5.53172        -5.99083    
   8     -5.67676        -4.89899        -4.79477        -4.79851        -4.81366        -4.83125        -4.84919        -4.87284        -4.99574        -5.77385    
   9     -5.51529        -4.59537        -4.45755        -4.43875        -4.43941        -4.44885        -4.46611        -4.50017        -4.65017        -5.58137    
  10     -5.38370        -5.35776        -5.33895        -5.32745        -5.32372        -5.32768        -5.33932        -5.35868        -5.38529        -5.41897    
1
  HEAD IN LAYER   3 AT END OF TIME STEP   6 IN STRESS PERIOD    7
  ---------------------------------------------------------------------------

                1               2               3               4               5               6               7               8               9              10
 ................................................................................................................................................................
   1     -13.6362        -13.7900        -14.0777        -14.4560        -14.8528        -15.1677        -15.3010        -15.2759        -15.1903        -15.1263    
   2     -13.8110        -14.0532        -14.5306        -15.2186        -16.0394        -16.7717        -16.8227        -16.4058        -15.9909        -15.7541    
   3     -13.8078        -14.1767        -14.9672        -16.3112        -18.4819        -22.0392        -21.1598        -18.4562        -16.9915        -16.3413    
   4     -13.1013        -13.3996        -14.0146        -14.9857        -16.3647        -18.1898        -17.8989        -16.5472        -15.6702        -15.2422    
   5     -11.9083        -12.0709        -12.3853        -12.8239        -13.3227        -13.7450        -13.8130        -13.6166        -13.3942        -13.2597    
   6     -10.6719        -10.7467        -10.8866        -11.0700        -11.2619        -11.4158        -11.4877        -11.4861        -11.4536        -11.4274    
   7     -9.63548        -9.66751        -9.72767        -9.80570        -9.88732        -9.95726        -10.0044        -10.0281        -10.0363        -10.0382    
   8     -8.87358        -8.88671        -8.91274        -8.94745        -8.98512        -9.02006        -9.04814        -9.06791        -9.08030        -9.08692    
   9     -8.38584        -8.39120        -8.40320        -8.42006        -8.43927        -8.45833        -8.47524        -8.48884        -8.49874        -8.50480    
  10     -8.15182        -8.15578        -8.16353        -8.17424        -8.18666        -8.19941        -8.21122        -8.22106        -8.22820        -8.23205    

 HEAD WILL BE SAVED ON UNIT 1023 AT END OF TIME STEP    6, STRESS PERIOD    7


  VOLUME BUDGET FOR ENTIRE MODEL AT END OF TIME STEP    6, STRESS PERIOD   7
  ---------------------------------------------------------------------------------------------------

     CUMULATIVE VOLUME      L**3       RATES FOR THIS TIME STEP      L**3/T          PACKAGE NAME    
     ------------------                 ------------------------                     ----------------

           IN:                                      IN:
           ---                                      ---
              STO-SS =           0.0000                STO-SS =           0.0000     STORAGE                          
      CSUB-CGELASTIC =     1529170.3392        CSUB-CGELASTIC =          96.4220     CSUB                             
        CSUB-ELASTIC =     4393077.6442          CSUB-ELASTIC =          21.0024     CSUB                             
      CSUB-INELASTIC =    52112949.8141        CSUB-INELASTIC =       26789.7160     CSUB                             
      CSUB-WATERCOMP =           0.0000        CSUB-WATERCOMP =           0.0000     CSUB                             
                 WEL =           0.0000                   WEL =           0.0000     WEL_0                            
                RCHA =    29612250.0000                  RCHA =           0.0000     RCHA_0                           
                 CHD =     2683162.8042                   CHD =        3092.8597     CHD_0                            

            TOTAL IN =    90330610.6017              TOTAL IN =       30000.0000

          OUT:                                     OUT:
          ----                                     ----
              STO-SS =           0.0000                STO-SS =           0.0000     STORAGE                          
      CSUB-CGELASTIC =           0.0000        CSUB-CGELASTIC =           0.0000     CSUB                             
        CSUB-ELASTIC =           0.0000          CSUB-ELASTIC =           0.0000     CSUB                             
      CSUB-INELASTIC =           0.0000        CSUB-INELASTIC =           0.0000     CSUB                             
      CSUB-WATERCOMP =           0.0000        CSUB-WATERCOMP =           0.0000     CSUB                             
                 WEL =    65745000.0000                   WEL =       30000.0000     WEL_0                            
                RCHA =           0.0000                  RCHA =           0.0000     RCHA_0                           
                 CHD =    24585610.6691                   CHD =           0.0000     CHD_0                            

           TOTAL OUT =    90330610.6691             TOTAL OUT =       30000.0000

            IN - OUT =      -6.7452E-02              IN - OUT =      -2.5635E-05

 PERCENT DISCREPANCY =          -0.00     PERCENT DISCREPANCY =          -0.00




         TIME SUMMARY AT END OF TIME STEP    6 IN STRESS PERIOD    7
                    SECONDS     MINUTES      HOURS       DAYS        YEARS
                    -----------------------------------------------------------
   TIME STEP LENGTH 9.18555E+06 1.53093E+05  2551.5      106.31     0.29107    
 STRESS PERIOD TIME 3.15576E+07 5.25960E+05  8766.0      365.25      1.0000    
         TOTAL TIME 1.89432E+08 3.15720E+06  52620.      2192.5      6.0027    


end timestep


start timestep kper="8" kstp="1" mode="normal"


 OUTPUT CONTROL FOR STRESS PERIOD 8 IS REPEATED USING SETTINGS FROM A PREVIOUS STRESS PERIOD.


 STRESS PERIOD 8 IS TRANSIENT


 REUSING CSUBS FROM LAST STRESS PERIOD

end timestep


start timestep kper="8" kstp="2" mode="normal"


end timestep


start timestep kper="8" kstp="3" mode="normal"


end timestep


start timestep kper="8" kstp="4" mode="normal"


end timestep


start timestep kper="8" kstp="5" mode="normal"


end timestep


start timestep kper="8" kstp="6" mode="normal"

 UBDSV1 SAVING  CSUB-CGELASTIC  ON UNIT   1022 AT TIME STEP      6, STRESS PERIOD      8
 UBDSV06 SAVING    CSUB-ELASTIC  IN MODEL CSUB_SUB03B      PACKAGE CSUB_SUB03B     CONNECTED TO MODEL CSUB_SUB03B      PACKAGE CSUB             ON UNIT   1022 AT TIME STEP      6, STRESS PERIOD      8
 UBDSV06 SAVING  CSUB-INELASTIC  IN MODEL CSUB_SUB03B      PACKAGE CSUB_SUB03B     CONNECTED TO MODEL CSUB_SUB03B      PACKAGE CSUB             ON UNIT   1022 AT TIME STEP      6, STRESS PERIOD      8
 UBDSV1 SAVING  CSUB-WATERCOMP  ON UNIT   1022 AT TIME STEP      6, STRESS PERIOD      8

 WEL PACKAGE (WEL_0) FLOW RATES   PERIOD      8   STEP        6
 -----------------------------------------------
   NUMBER   CELLID                    RATE      
 -----------------------------------------------
     1      (3,3,6)              -14000.000     
     2      (3,3,7)              -8000.0000     
     3      (3,4,6)              -5000.0000     
     4      (3,4,7)              -3000.0000     
 -----------------------------------------------




 CSUB-COMPACTION WILL BE SAVED ON UNIT 1018 AT END OF TIME STEP    6, STRESS PERIOD    8
1
  HEAD IN LAYER   1 AT END OF TIME STEP   6 IN STRESS PERIOD    8
  ---------------------------------------------------------------------------

                1               2               3               4               5               6               7               8               9              10
 ................................................................................................................................................................
   1      19.6748         19.2442         18.4275         17.9008         17.6272         17.5929         17.8006         18.2703         19.0443         19.4519    
   2      18.5180         17.9064         17.3810         16.9977         16.7787         16.7327         16.8625         17.1657         17.6276         18.2024    
   3      16.9223         16.3264         15.8673         15.5399         15.3425         15.2747         15.3378         15.5327         15.8662         16.3659    
   4      14.8159         14.2970         13.9248         13.6628         13.4940         13.4091         13.3997         13.4523         13.5438         13.6323    
   5      11.8794         11.7688         11.6306         11.5032         11.4044         11.3408         11.3118         11.3109         11.3260         11.3414    
   6      9.46357         9.42690         9.36916         9.30682         9.25245         9.21332         9.19140         9.18406         9.18542         9.18862    
   7      7.25915         7.23347         7.19053         7.14331         7.10475         7.08253         7.07838         7.08821         7.10288         7.11314    
   8      5.21020         5.16263         5.08281         4.99899         4.94568         4.93360         4.96373         5.02738         5.09221         5.13176    
   9      3.39316         3.26497         3.03535         2.77689         2.66586         2.66002         2.75945         3.00646         3.22722         3.35062    
  10      2.12072         1.80893         1.13904         0.00000         0.00000         0.00000         0.00000         1.12644         1.78782         2.09529    
1
  HEAD IN LAYER   2 AT END OF TIME STEP   6 IN STRESS PERIOD    8
  ---------------------------------------------------------------------------

                1               2               3               4               5               6               7               8               9              10
 ................................................................................................................................................................
   1     7.690506E-02    9.564606E-02    0.100605        9.521113E-02    8.229681E-02    6.394365E-02    4.120245E-02    1.371720E-02   -2.024155E-02   -6.353864E-02
   2    -5.954181E-02     1.24129        0.962930        0.455632       -5.207087E-02   -0.432032       -0.399603       -6.234138E-02    0.259414       -0.280489    
   3    -0.250152        0.538326        5.582892E-02   -0.774651        -1.94883        -3.53082        -3.15966        -1.85459       -0.945438       -0.526154    
   4    -0.478694       -4.683439E-03   -0.406221        -1.02121        -1.79452        -2.66661        -2.56197        -1.91186        -1.36478       -0.773813    
   5    -0.733199       -0.509135       -0.696559       -0.980165        -1.28250        -1.52740        -1.57836        -1.47962        -1.32092        -1.00977    
   6    -0.998646       -0.945846        -1.03529        -1.15963        -1.28506        -1.38363        -1.43197        -1.43407        -1.39517        -1.23806    
   7     -1.26742        -1.43045        -1.50465        -1.57036        -1.63210        -1.67948        -1.70591        -1.71116        -1.67720        -1.46191    
   8     -1.53188        -1.99665        -2.11414        -2.17881        -2.22561        -2.24997        -2.24922        -2.22325        -2.13374        -1.67913    
   9     -1.78238        -2.58994        -2.80919        -2.94280        -3.00759        -3.02047        -2.98037        -2.86854        -2.66771        -1.88234    
  10     -2.00812        -2.05749        -2.09900        -2.13082        -2.14967        -2.15560        -2.14860        -2.12862        -2.09889        -2.06125    
1
  HEAD IN LAYER   3 AT END OF TIME STEP   6 IN STRESS PERIOD    8
  ---------------------------------------------------------------------------

                1               2               3               4               5               6               7               8               9              10
 ................................................................................................................................................................
   1     -14.3543        -14.5108        -14.8040        -15.1898        -15.5949        -15.9175        -16.0567        -16.0355        -15.9523        -15.8894    
   2     -14.5148        -14.7586        -15.2429        -15.9413        -16.7737        -17.5159        -17.5729        -17.1583        -16.7443        -16.5087    
   3     -14.4835        -14.8553        -15.6549        -17.0128        -19.1995        -22.7707        -21.8966        -19.1915        -17.7239        -17.0723    
   4     -13.7285        -14.0294        -14.6526        -15.6355        -17.0277        -18.8642        -18.5785        -17.2270        -16.3484        -15.9193    
   5     -12.4714        -12.6360        -12.9555        -13.4015        -13.9086        -14.3382        -14.4108        -14.2164        -13.9945        -13.8604    
   6     -11.1663        -11.2432        -11.3869        -11.5750        -11.7718        -11.9301        -12.0052        -12.0054        -11.9736        -11.9474    
   7     -10.0660        -10.1008        -10.1643        -10.2459        -10.3309        -10.4036        -10.4525        -10.4771        -10.4849        -10.4856    
   8     -9.25126        -9.26796        -9.29764        -9.33556        -9.37581        -9.41253        -9.44138        -9.46079        -9.47158        -9.47570    
   9     -8.72460        -8.73395        -8.74968        -8.76955        -8.79093        -8.81120        -8.82826        -8.84081        -8.84841        -8.85124    
  10     -8.46658        -8.47191        -8.48158        -8.49419        -8.50815        -8.52186        -8.53396        -8.54347        -8.54982        -8.55290    

 HEAD WILL BE SAVED ON UNIT 1023 AT END OF TIME STEP    6, STRESS PERIOD    8


  VOLUME BUDGET FOR ENTIRE MODEL AT END OF TIME STEP    6, STRESS PERIOD   8
  ---------------------------------------------------------------------------------------------------

     CUMULATIVE VOLUME      L**3       RATES FOR THIS TIME STEP      L**3/T          PACKAGE NAME    
     ------------------                 ------------------------                     ----------------

           IN:                                      IN:
           ---                                      ---
              STO-SS =           0.0000                STO-SS =           0.0000     STORAGE                          
      CSUB-CGELASTIC =     1555293.9171        CSUB-CGELASTIC =          69.6243     CSUB                             
        CSUB-ELASTIC =     4393077.6442          CSUB-ELASTIC =           0.0000     CSUB                             
      CSUB-INELASTIC =    60730606.8746        CSUB-INELASTIC =       23020.2799     CSUB                             
      CSUB-WATERCOMP =           0.0000        CSUB-WATERCOMP =           0.0000     CSUB                             
                 WEL =           0.0000                   WEL =           0.0000     WEL_0                            
                RCHA =    39474000.0000                  RCHA =       27000.0000     RCHA_0                           
                 CHD =     2706552.5349                   CHD =          51.5081     CHD_0                            

            TOTAL IN =   108859530.9708              TOTAL IN =       50141.4123

          OUT:                                     OUT:
          ----                                     ----
              STO-SS =           0.0000                STO-SS =           0.0000     STORAGE                          
      CSUB-CGELASTIC =      271742.0854        CSUB-CGELASTIC =          35.7789     CSUB                             
        CSUB-ELASTIC =      960856.5433          CSUB-ELASTIC =         181.4969     CSUB                             
      CSUB-INELASTIC =           0.0000        CSUB-INELASTIC =           0.0000     CSUB                             
      CSUB-WATERCOMP =           0.0000        CSUB-WATERCOMP =           0.0000     CSUB                             
                 WEL =    76702500.0000                   WEL =       30000.0000     WEL_0                            
                RCHA =           0.0000                  RCHA =           0.0000     RCHA_0                           
                 CHD =    30924432.4007                   CHD =       19924.1365     CHD_0                            

           TOTAL OUT =   108859531.0294             TOTAL OUT =       50141.4123

            IN - OUT =      -5.8657E-02              IN - OUT =       2.3618E-05

 PERCENT DISCREPANCY =          -0.00     PERCENT DISCREPANCY =           0.00




         TIME SUMMARY AT END OF TIME STEP    6 IN STRESS PERIOD    8
                    SECONDS     MINUTES      HOURS       DAYS        YEARS
                    -----------------------------------------------------------
   TIME STEP LENGTH 9.18555E+06 1.53093E+05  2551.5      106.31     0.29107    
 STRESS PERIOD TIME 3.15576E+07 5.25960E+05  8766.0      365.25      1.0000    
         TOTAL TIME 2.20990E+08 3.68316E+06  61386.      2557.8      7.0027    


end timestep


start timestep kper="9" kstp="1" mode="normal"


 OUTPUT CONTROL FOR STRESS PERIOD 9 IS REPEATED USING SETTINGS FROM A PREVIOUS STRESS PERIOD.


 STRESS PERIOD 9 IS TRANSIENT


 REUSING CSUBS FROM LAST STRESS PERIOD

end timestep


start timestep kper="9" kstp="2" mode="normal"


end timestep


start timestep kper="9" kstp="3" mode="normal"


end timestep


start timestep kper="9" kstp="4" mode="normal"


end timestep


start timestep kper="9" kstp="5" mode="normal"


end timestep


start timestep kper="9" kstp="6" mode="normal"

 UBDSV1 SAVING  CSUB-CGELASTIC  ON UNIT   1022 AT TIME STEP      6, STRESS PERIOD      9
 UBDSV06 SAVING    CSUB-ELASTIC  IN MODEL CSUB_SUB03B      PACKAGE CSUB_SUB03B     CONNECTED TO MODEL CSUB_SUB03B      PACKAGE CSUB             ON UNIT   1022 AT TIME STEP      6, STRESS PERIOD      9
 UBDSV06 SAVING  CSUB-INELASTIC  IN MODEL CSUB_SUB03B      PACKAGE CSUB_SUB03B     CONNECTED TO MODEL CSUB_SUB03B      PACKAGE CSUB             ON UNIT   1022 AT TIME STEP      6, STRESS PERIOD      9
 UBDSV1 SAVING  CSUB-WATERCOMP  ON UNIT   1022 AT TIME STEP      6, STRESS PERIOD      9

 WEL PACKAGE (WEL_0) FLOW RATES   PERIOD      9   STEP        6
 -----------------------------------------------
   NUMBER   CELLID                    RATE      
 -----------------------------------------------
     1      (3,3,6)              -14000.000     
     2      (3,3,7)              -8000.0000     
     3      (3,4,6)              -5000.0000     
     4      (3,4,7)              -3000.0000     
 -----------------------------------------------




 CSUB-COMPACTION WILL BE SAVED ON UNIT 1018 AT END OF TIME STEP    6, STRESS PERIOD    9
1
  HEAD IN LAYER   1 AT END OF TIME STEP   6 IN STRESS PERIOD    9
  ---------------------------------------------------------------------------

                1               2               3               4               5               6               7               8               9              10
 ................................................................................................................................................................
   1      19.7234         19.2927         18.4760         17.9492         17.6757         17.6413         17.8490         18.3187         19.0928         19.5003    
   2      18.5652         17.9535         17.4280         17.0447         16.8257         16.7796         16.9095         17.2126         17.6745         18.2493    
   3      16.9668         16.3709         15.9117         15.5842         15.3868         15.3190         15.3820         15.5769         15.9105         16.4102    
   4      14.8565         14.3376         13.9654         13.7033         13.5345         13.4496         13.4401         13.4927         13.5843         13.6727    
   5      11.9152         11.8045         11.6663         11.5389         11.4400         11.3764         11.3474         11.3464         11.3616         11.3770    
   6      9.49357         9.45689         9.39912         9.33675         9.28235         9.24319         9.22127         9.21394         9.21529         9.21849    
   7      7.28277         7.25707         7.21407         7.16678         7.12816         7.10593         7.10180         7.11168         7.12639         7.13667    
   8      5.22720         5.17953         5.09949         5.01546         4.96201         4.94991         4.98016         5.04401         5.10904         5.14869    
   9      3.40396         3.27540         3.04510         2.78586         2.67450         2.66865         2.76840         3.01617         3.23761         3.36138    
  10      2.12712         1.81438         1.14246         0.00000         0.00000         0.00000         0.00000         1.12983         1.79324         2.10166    
1
  HEAD IN LAYER   2 AT END OF TIME STEP   6 IN STRESS PERIOD    9
  ---------------------------------------------------------------------------

                1               2               3               4               5               6               7               8               9              10
 ................................................................................................................................................................
   1    -0.172219       -0.154755       -0.150844       -0.157047       -0.170522       -0.189170       -0.211923       -0.239125       -0.272491       -0.314877    
   2    -0.302646        0.974274        0.692187        0.181346       -0.330295       -0.713724       -0.683541       -0.347285       -2.293487E-02   -0.526902    
   3    -0.486192        0.280419       -0.206294        -1.04138        -2.22093        -3.80771        -3.43863        -2.13337        -1.22049       -0.766177    
   4    -0.706736       -0.246323       -0.650902        -1.26979        -2.04756        -2.92357        -2.82097        -2.17123        -1.62188        -1.00608    
   5    -0.952620       -0.729576       -0.917875        -1.20395        -1.50919        -1.75670        -1.80946        -1.71172        -1.55318        -1.23328    
   6     -1.20929        -1.14422        -1.23277        -1.35862        -1.48587        -1.58611        -1.63578        -1.63889        -1.60190        -1.45239    
   7     -1.46963        -1.60939        -1.68170        -1.74847        -1.81145        -1.85993        -1.88720        -1.89310        -1.86185        -1.66724    
   8     -1.72647        -2.16126        -2.27691        -2.34270        -2.39055        -2.41563        -2.41523        -2.38928        -2.30222        -1.87617    
   9     -1.97050        -2.74686        -2.96541        -3.10085        -3.16680        -3.18018        -3.13985        -3.02697        -2.82727        -2.07218    
  10     -2.19106        -2.23944        -2.28025        -2.31166        -2.33036        -2.33640        -2.32978        -2.31042        -2.28160        -2.24515    
1
  HEAD IN LAYER   3 AT END OF TIME STEP   6 IN STRESS PERIOD    9
  ---------------------------------------------------------------------------

                1               2               3               4               5               6               7               8               9              10
 ................................................................................................................................................................
   1     -15.0660        -15.2249        -15.5225        -15.9141        -16.3255        -16.6538        -16.7977        -16.7795        -16.6981        -16.6361    
   2     -15.2141        -15.4607        -15.9503        -16.6557        -17.4955        -18.2445        -18.3061        -17.8939        -17.4808        -17.2455    
   3     -15.1549        -15.5299        -16.3358        -17.7023        -19.8986        -23.4785        -22.6085        -19.9037        -18.4353        -17.7831    
   4     -14.3536        -14.6575        -15.2861        -16.2764        -17.6767        -19.5202        -19.2386        -17.8881        -17.0094        -16.5799    
   5     -13.0365        -13.2030        -13.5264        -13.9774        -14.4899        -14.9244        -15.0003        -14.8079        -14.5869        -14.4530    
   6     -11.6663        -11.7445        -11.8906        -12.0819        -12.2822        -12.4437        -12.5214        -12.5234        -12.4927        -12.4670    
   7     -10.5047        -10.5402        -10.6053        -10.6890        -10.7762        -10.8510        -10.9018        -10.9276        -10.9364        -10.9375    
   8     -9.63875        -9.65598        -9.68670        -9.72598        -9.76771        -9.80584        -9.83591        -9.85623        -9.86764        -9.87207    
   9     -9.07542        -9.08517        -9.10165        -9.12250        -9.14492        -9.16619        -9.18407        -9.19724        -9.20525        -9.20830    
  10     -8.79812        -8.80378        -8.81404        -8.82743        -8.84222        -8.85672        -8.86949        -8.87950        -8.88618        -8.88942    

 HEAD WILL BE SAVED ON UNIT 1023 AT END OF TIME STEP    6, STRESS PERIOD    9


  VOLUME BUDGET FOR ENTIRE MODEL AT END OF TIME STEP    6, STRESS PERIOD   9
  ---------------------------------------------------------------------------------------------------

     CUMULATIVE VOLUME      L**3       RATES FOR THIS TIME STEP      L**3/T          PACKAGE NAME    
     ------------------                 ------------------------                     ----------------

           IN:                                      IN:
           ---                                      ---
              STO-SS =           0.0000                STO-SS =           0.0000     STORAGE                          
      CSUB-CGELASTIC =     1581794.8949        CSUB-CGELASTIC =          74.9512     CSUB                             
        CSUB-ELASTIC =     4401075.3572          CSUB-ELASTIC =          32.6526     CSUB                             
      CSUB-INELASTIC =    69090946.9635        CSUB-INELASTIC =       22823.1191     CSUB                             
      CSUB-WATERCOMP =           0.0000        CSUB-WATERCOMP =           0.0000     CSUB                             
                 WEL =           0.0000                   WEL =           0.0000     WEL_0                            
                RCHA =    49335750.0000                  RCHA =       27000.0000     RCHA_0                           
                 CHD =     2726169.9847                   CHD =          55.8492     CHD_0                            

            TOTAL IN =   127135737.2003              TOTAL IN =       49986.5720

          OUT:                                     OUT:
          ----                                     ----
              STO-SS =           0.0000                STO-SS =           0.0000     STORAGE                          
      CSUB-CGELASTIC =      272965.5610        CSUB-CGELASTIC =           0.0000     CSUB                             
        CSUB-ELASTIC =      967085.3344          CSUB-ELASTIC =           0.0000     CSUB                             
      CSUB-INELASTIC =           0.0000        CSUB-INELASTIC =           0.0000     CSUB                             
      CSUB-WATERCOMP =           0.0000        CSUB-WATERCOMP =           0.0000     CSUB                             
                 WEL =    87660000.0000                   WEL =       30000.0000     WEL_0                            
                RCHA =           0.0000                  RCHA =           0.0000     RCHA_0                           
                 CHD =    38235686.3669                   CHD =       19986.5720     CHD_0                            

           TOTAL OUT =   127135737.2624             TOTAL OUT =       49986.5720

            IN - OUT =      -6.2083E-02              IN - OUT =      -2.4212E-05

 PERCENT DISCREPANCY =          -0.00     PERCENT DISCREPANCY =          -0.00




         TIME SUMMARY AT END OF TIME STEP    6 IN STRESS PERIOD    9
                    SECONDS     MINUTES      HOURS       DAYS        YEARS
                    -----------------------------------------------------------
   TIME STEP LENGTH 9.18555E+06 1.53093E+05  2551.5      106.31     0.29107    
 STRESS PERIOD TIME 3.15576E+07 5.25960E+05  8766.0      365.25      1.0000    
         TOTAL TIME 2.52547E+08 4.20912E+06  70152.      2923.0      8.0027    


end timestep


start timestep kper="10" kstp="1" mode="normal"


 OUTPUT CONTROL FOR STRESS PERIOD 10 IS REPEATED USING SETTINGS FROM A PREVIOUS STRESS PERIOD.


 STRESS PERIOD 10 IS TRANSIENT


 REUSING CSUBS FROM LAST STRESS PERIOD

end timestep


start timestep kper="10" kstp="2" mode="normal"


end timestep


start timestep kper="10" kstp="3" mode="normal"


end timestep


start timestep kper="10" kstp="4" mode="normal"


end timestep


start timestep kper="10" kstp="5" mode="normal"


end timestep


start timestep kper="10" kstp="6" mode="normal"

 UBDSV1 SAVING  CSUB-CGELASTIC  ON UNIT   1022 AT TIME STEP      6, STRESS PERIOD     10
 UBDSV06 SAVING    CSUB-ELASTIC  IN MODEL CSUB_SUB03B      PACKAGE CSUB_SUB03B     CONNECTED TO MODEL CSUB_SUB03B      PACKAGE CSUB             ON UNIT   1022 AT TIME STEP      6, STRESS PERIOD     10
 UBDSV06 SAVING  CSUB-INELASTIC  IN MODEL CSUB_SUB03B      PACKAGE CSUB_SUB03B     CONNECTED TO MODEL CSUB_SUB03B      PACKAGE CSUB             ON UNIT   1022 AT TIME STEP      6, STRESS PERIOD     10
 UBDSV1 SAVING  CSUB-WATERCOMP  ON UNIT   1022 AT TIME STEP      6, STRESS PERIOD     10

 WEL PACKAGE (WEL_0) FLOW RATES   PERIOD     10   STEP        6
 -----------------------------------------------
   NUMBER   CELLID                    RATE      
 -----------------------------------------------
     1      (3,3,6)              -14000.000     
     2      (3,3,7)              -8000.0000     
     3      (3,4,6)              -5000.0000     
     4      (3,4,7)              -3000.0000     
 -----------------------------------------------




 CSUB-COMPACTION WILL BE SAVED ON UNIT 1018 AT END OF TIME STEP    6, STRESS PERIOD   10
1
  HEAD IN LAYER   1 AT END OF TIME STEP   6 IN STRESS PERIOD   10
  ---------------------------------------------------------------------------

                1               2               3               4               5               6               7               8               9              10
 ................................................................................................................................................................
   1      19.6448         19.2142         18.3974         17.8706         17.5970         17.5626         17.7704         18.2401         19.0141         19.4217    
   2      18.4882         17.8765         17.3510         16.9677         16.7486         16.7025         16.8323         17.1355         17.5974         18.1723    
   3      16.8932         16.2972         15.8380         15.5105         15.3130         15.2452         15.3082         15.5031         15.8367         16.3365    
   4      14.7880         14.2690         13.8968         13.6347         13.4659         13.3809         13.3715         13.4241         13.5156         13.6041    
   5      11.8534         11.7428         11.6045         11.4771         11.3782         11.3145         11.2855         11.2846         11.2997         11.3152    
   6      9.44000         9.40335         9.34563         9.28330         9.22892         9.18974         9.16777         9.16038         9.16168         9.16484    
   7      7.23866         7.21308         7.17026         7.12313         7.08462         7.06237         7.05813         7.06782         7.08234         7.09249    
   8      5.19343         5.14611         5.06663         4.98314         4.93000         4.91790         4.94782         5.01112         5.07559         5.11487    
   9      3.38050         3.25292         3.02432         2.76696         2.65639         2.65053         2.74949         2.99536         3.21510         3.33789    
  10      2.11148         1.80104         1.13406         0.00000         0.00000         0.00000         0.00000         1.12143         1.77988         2.08599    
1
  HEAD IN LAYER   2 AT END OF TIME STEP   6 IN STRESS PERIOD   10
  ---------------------------------------------------------------------------

                1               2               3               4               5               6               7               8               9              10
 ................................................................................................................................................................
   1    -0.514199       -0.498344       -0.495709       -0.502853       -0.516922       -0.535806       -0.558425       -0.585107       -0.617560       -0.658630    
   2    -0.636889        0.592689        0.301975       -0.212108       -0.726761        -1.11281        -1.08435       -0.748430       -0.416508       -0.863792    
   3    -0.811186       -8.839131E-02   -0.583847        -1.42284        -2.60627        -4.19645        -3.82899        -2.52338        -1.60249        -1.09435    
   4     -1.02113       -0.592341        -1.00360        -1.62579        -2.40682        -3.28565        -3.18461        -2.53492        -1.97976        -1.32384    
   5     -1.25543        -1.04622        -1.23798        -1.52622        -1.83367        -2.08312        -2.13725        -2.04008        -1.87905        -1.53937    
   6     -1.50011        -1.42874        -1.51730        -1.64435        -1.77299        -1.87455        -1.92529        -1.92920        -1.89306        -1.74616    
   7     -1.74867        -1.86275        -1.93186        -1.99908        -2.06289        -2.11225        -2.14036        -2.14718        -2.11979        -1.94878    
   8     -1.99455        -2.38738        -2.49711        -2.56270        -2.61095        -2.63662        -2.63694        -2.61212        -2.53147        -2.14622    
   9     -2.22894        -2.95356        -3.16439        -3.29881        -3.36472        -3.37850        -3.33898        -3.22778        -3.03614        -2.33201    
  10     -2.44156        -2.48835        -2.52798        -2.55861        -2.57697        -2.58311        -2.57700        -2.55859        -2.53112        -2.49642    
1
  HEAD IN LAYER   3 AT END OF TIME STEP   6 IN STRESS PERIOD   10
  ---------------------------------------------------------------------------

                1               2               3               4               5               6               7               8               9              10
 ................................................................................................................................................................
   1     -15.7811        -15.9420        -16.2432        -16.6395        -17.0559        -17.3889        -17.5364        -17.5207        -17.4408        -17.3793    
   2     -15.9170        -16.1660        -16.6599        -17.3710        -18.2170        -18.9713        -19.0365        -18.6262        -18.2137        -17.9785    
   3     -15.8308        -16.2086        -17.0196        -18.3930        -20.5971        -24.1839        -23.3171        -20.6126        -19.1435        -18.4906    
   4     -14.9857        -15.2919        -15.9250        -16.9212        -18.3280        -20.1773        -19.8987        -18.5490        -17.6701        -17.2403    
   5     -13.6118        -13.7801        -14.1066        -14.5616        -15.0785        -15.5168        -15.5954        -15.4045        -15.1841        -15.0505    
   6     -12.1802        -12.2594        -12.4075        -12.6013        -12.8044        -12.9685        -13.0483        -13.0518        -13.0220        -12.9967    
   7     -10.9602        -10.9964        -11.0627        -11.1479        -11.2369        -11.3134        -11.3657        -11.3928        -11.4023        -11.4039    
   8     -10.0456        -10.0632        -10.0946        -10.1349        -10.1778        -10.2170        -10.2482        -10.2694        -10.2814        -10.2862    
   9     -9.44756        -9.45749        -9.47443        -9.49595        -9.51916        -9.54124        -9.55990        -9.57372        -9.58222        -9.58558    
  10     -9.15230        -9.15816        -9.16881        -9.18273        -9.19816        -9.21332        -9.22671        -9.23724        -9.24431        -9.24775    

 HEAD WILL BE SAVED ON UNIT 1023 AT END OF TIME STEP    6, STRESS PERIOD   10


  VOLUME BUDGET FOR ENTIRE MODEL AT END OF TIME STEP    6, STRESS PERIOD  10
  ---------------------------------------------------------------------------------------------------

     CUMULATIVE VOLUME      L**3       RATES FOR THIS TIME STEP      L**3/T          PACKAGE NAME    
     ------------------                 ------------------------                     ----------------

           IN:                                      IN:
           ---                                      ---
              STO-SS =           0.0000                STO-SS =           0.0000     STORAGE                          
      CSUB-CGELASTIC =     1609496.0729        CSUB-CGELASTIC =          76.1315     CSUB                             
        CSUB-ELASTIC =     4413806.4015          CSUB-ELASTIC =          35.2489     CSUB                             
      CSUB-INELASTIC =    77394006.8488        CSUB-INELASTIC =       22672.1601     CSUB                             
      CSUB-WATERCOMP =           0.0000        CSUB-WATERCOMP =           0.0000     CSUB                             
                 WEL =           0.0000                   WEL =           0.0000     WEL_0                            
                RCHA =    59197500.0000                  RCHA =       27000.0000     RCHA_0                           
                 CHD =     2747860.1398                   CHD =          61.7742     CHD_0                            

            TOTAL IN =   145362669.4632              TOTAL IN =       49845.3147

          OUT:                                     OUT:
          ----                                     ----
              STO-SS =           0.0000                STO-SS =           0.0000     STORAGE                          
      CSUB-CGELASTIC =      272965.5610        CSUB-CGELASTIC =           0.0000     CSUB                             
        CSUB-ELASTIC =      967085.3344          CSUB-ELASTIC =           0.0000     CSUB                             
      CSUB-INELASTIC =           0.0000        CSUB-INELASTIC =           0.0000     CSUB                             
      CSUB-WATERCOMP =           0.0000        CSUB-WATERCOMP =           0.0000     CSUB                             
                 WEL =    98617500.0000                   WEL =       30000.0000     WEL_0                            
                RCHA =           0.0000                  RCHA =           0.0000     RCHA_0                           
                 CHD =    45505118.6387                   CHD =       19845.3148     CHD_0                            

           TOTAL OUT =   145362669.5341             TOTAL OUT =       49845.3148

            IN - OUT =      -7.0990E-02              IN - OUT =      -2.4939E-05

 PERCENT DISCREPANCY =          -0.00     PERCENT DISCREPANCY =          -0.00




         TIME SUMMARY AT END OF TIME STEP    6 IN STRESS PERIOD   10
                    SECONDS     MINUTES      HOURS       DAYS        YEARS
                    -----------------------------------------------------------
   TIME STEP LENGTH 9.18555E+06 1.53093E+05  2551.5      106.31     0.29107    
 STRESS PERIOD TIME 3.15576E+07 5.25960E+05  8766.0      365.25      1.0000    
         TOTAL TIME 2.84105E+08 4.73508E+06  78918.      3288.2      9.0027    


end timestep


start timestep kper="11" kstp="1" mode="normal"


 OUTPUT CONTROL FOR STRESS PERIOD 11 IS REPEATED USING SETTINGS FROM A PREVIOUS STRESS PERIOD.


 STRESS PERIOD 11 IS TRANSIENT


 REUSING CSUBS FROM LAST STRESS PERIOD

end timestep


start timestep kper="11" kstp="2" mode="normal"


end timestep


start timestep kper="11" kstp="3" mode="normal"


end timestep


start timestep kper="11" kstp="4" mode="normal"


end timestep


start timestep kper="11" kstp="5" mode="normal"


end timestep


start timestep kper="11" kstp="6" mode="normal"

 UBDSV1 SAVING  CSUB-CGELASTIC  ON UNIT   1022 AT TIME STEP      6, STRESS PERIOD     11
 UBDSV06 SAVING    CSUB-ELASTIC  IN MODEL CSUB_SUB03B      PACKAGE CSUB_SUB03B     CONNECTED TO MODEL CSUB_SUB03B      PACKAGE CSUB             ON UNIT   1022 AT TIME STEP      6, STRESS PERIOD     11
 UBDSV06 SAVING  CSUB-INELASTIC  IN MODEL CSUB_SUB03B      PACKAGE CSUB_SUB03B     CONNECTED TO MODEL CSUB_SUB03B      PACKAGE CSUB             ON UNIT   1022 AT TIME STEP      6, STRESS PERIOD     11
 UBDSV1 SAVING  CSUB-WATERCOMP  ON UNIT   1022 AT TIME STEP      6, STRESS PERIOD     11

 WEL PACKAGE (WEL_0) FLOW RATES   PERIOD     11   STEP        6
 -----------------------------------------------
   NUMBER   CELLID                    RATE      
 -----------------------------------------------
     1      (3,3,6)              -14000.000     
     2      (3,3,7)              -8000.0000     
     3      (3,4,6)              -5000.0000     
     4      (3,4,7)              -3000.0000     
 -----------------------------------------------




 CSUB-COMPACTION WILL BE SAVED ON UNIT 1018 AT END OF TIME STEP    6, STRESS PERIOD   11
1
  HEAD IN LAYER   1 AT END OF TIME STEP   6 IN STRESS PERIOD   11
  ---------------------------------------------------------------------------

                1               2               3               4               5               6               7               8               9              10
 ................................................................................................................................................................
   1      19.5650         19.1343         18.3175         17.7907         17.5171         17.4827         17.6904         18.1601         18.9342         19.3418    
   2      18.4100         17.7982         17.2727         16.8893         16.6702         16.6241         16.7539         17.0571         17.5191         18.0940    
   3      16.8184         16.2224         15.7632         15.4356         15.2380         15.1702         15.2333         15.4282         15.7618         16.2616    
   4      14.7184         14.1994         13.8271         13.5650         13.3961         13.3111         13.3017         13.3543         13.4459         13.5344    
   5      11.7906         11.6799         11.5416         11.4142         11.3153         11.2516         11.2226         11.2216         11.2368         11.2522    
   6      9.38544         9.34882         9.29115         9.22887         9.17450         9.13531         9.11330         9.10585         9.10708         9.11021    
   7      7.19369         7.16824         7.12560         7.07864         7.04022         7.01797         7.01361         7.02312         7.03745         7.04747    
   8      5.15897         5.11202         5.03310         4.95017         4.89733         4.88522         4.91483         4.97755         5.04145         5.08038    
   9      3.35655         3.22997         3.00309         2.74766         2.63789         2.63202         2.73018         2.97412         3.19212         3.31391    
  10      2.09550         1.78742         1.12548         0.00000         0.00000         0.00000         0.00000         1.11284         1.76624         2.07000    
1
  HEAD IN LAYER   2 AT END OF TIME STEP   6 IN STRESS PERIOD   11
  ---------------------------------------------------------------------------

                1               2               3               4               5               6               7               8               9              10
 ................................................................................................................................................................
   1    -0.856303       -0.841946       -0.840493       -0.848497       -0.863100       -0.882180       -0.904646       -0.930817       -0.962389        -1.00220    
   2    -0.971753        0.212778       -8.591781E-02   -0.602738        -1.11988        -1.50809        -1.48105        -1.14535       -0.806333        -1.20085    
   3     -1.13737       -0.456035       -0.959485        -1.80175        -2.98835        -4.58131        -4.21519        -2.90927        -1.98101        -1.42317    
   4     -1.33735       -0.938498        -1.35584        -1.98077        -2.76448        -3.64563        -3.54588        -2.89620        -2.33570        -1.64286    
   5     -1.56077        -1.36488        -1.55979        -1.84984        -2.15909        -2.41015        -2.46541        -2.36871        -2.20534        -1.84742    
   6     -1.79416        -1.71733        -1.80585        -1.93388        -2.06366        -2.16631        -2.21796        -2.22255        -2.18715        -2.04266    
   7     -2.03162        -2.12201        -2.18809        -2.25565        -2.32013        -2.37023        -2.39904        -2.40669        -2.38287        -2.23381    
   8     -2.26715        -2.62085        -2.72497        -2.79030        -2.83884        -2.86501        -2.86597        -2.84220        -2.76757        -2.42046    
   9     -2.49244        -3.16849        -3.37196        -3.50528        -3.57108        -3.58520        -3.54644        -3.43687        -3.25290        -2.59666    
  10     -2.69752        -2.74279        -2.78129        -2.81119        -2.82922        -2.83543        -2.82980        -2.81228        -2.78608        -2.75303    
1
  HEAD IN LAYER   3 AT END OF TIME STEP   6 IN STRESS PERIOD   11
  ---------------------------------------------------------------------------

                1               2               3               4               5               6               7               8               9              10
 ................................................................................................................................................................
   1     -16.4892        -16.6516        -16.9558        -17.3560        -17.7766        -18.1135        -18.2641        -18.2505        -18.1717        -18.1108    
   2     -16.6133        -16.8643        -17.3617        -18.0775        -18.9285        -19.6873        -19.7555        -19.3467        -18.9349        -18.6998    
   3     -16.5014        -16.8815        -17.6967        -19.0758        -21.2862        -24.8787        -24.0146        -21.3103        -19.8406        -19.1872    
   4     -15.6153        -15.9235        -16.5603        -17.5614        -18.9734        -20.8274        -20.5514        -19.2024        -18.3234        -17.8934    
   5     -14.1889        -14.3586        -14.6876        -15.1460        -15.6664        -16.1079        -16.1889        -15.9992        -15.7794        -15.6459    
   6     -12.7004        -12.7806        -12.9302        -13.1262        -13.3316        -13.4978        -13.5793        -13.5841        -13.5550        -13.5301    
   7     -11.4265        -11.4632        -11.5304        -11.6169        -11.7074        -11.7854        -11.8389        -11.8670        -11.8772        -11.8791    
   8     -10.4666        -10.4844        -10.5165        -10.5575        -10.6014        -10.6416        -10.6737        -10.6956        -10.7082        -10.7134    
   9     -9.83628        -9.84635        -9.86366        -9.88573        -9.90960        -9.93237        -9.95168        -9.96607        -9.97502        -9.97867    
  10     -9.52434        -9.53035        -9.54132        -9.55569        -9.57165        -9.58736        -9.60129        -9.61227        -9.61968        -9.62331    

 HEAD WILL BE SAVED ON UNIT 1023 AT END OF TIME STEP    6, STRESS PERIOD   11


  VOLUME BUDGET FOR ENTIRE MODEL AT END OF TIME STEP    6, STRESS PERIOD  11
  ---------------------------------------------------------------------------------------------------

     CUMULATIVE VOLUME      L**3       RATES FOR THIS TIME STEP      L**3/T          PACKAGE NAME    
     ------------------                 ------------------------                     ----------------

           IN:                                      IN:
           ---                                      ---
              STO-SS =           0.0000                STO-SS =           0.0000     STORAGE                          
      CSUB-CGELASTIC =     1637349.2905        CSUB-CGELASTIC =          76.2883     CSUB                             
        CSUB-ELASTIC =     4426702.3692          CSUB-ELASTIC =          35.3093     CSUB                             
      CSUB-INELASTIC =    85642052.8399        CSUB-INELASTIC =       22521.6034     CSUB                             
      CSUB-WATERCOMP =           0.0000        CSUB-WATERCOMP =           0.0000     CSUB                             
                 WEL =           0.0000                   WEL =           0.0000     WEL_0                            
                RCHA =    69059250.0000                  RCHA =       27000.0000     RCHA_0                           
                 CHD =     2771746.8220                   CHD =          67.8339     CHD_0                            

            TOTAL IN =   163537101.3217              TOTAL IN =       49701.0348

          OUT:                                     OUT:
          ----                                     ----
              STO-SS =           0.0000                STO-SS =           0.0000     STORAGE                          
      CSUB-CGELASTIC =      272965.5610        CSUB-CGELASTIC =           0.0000     CSUB                             
        CSUB-ELASTIC =      967085.3344          CSUB-ELASTIC =           0.0000     CSUB                             
      CSUB-INELASTIC =           0.0000        CSUB-INELASTIC =           0.0000     CSUB                             
      CSUB-WATERCOMP =           0.0000        CSUB-WATERCOMP =           0.0000     CSUB                             
                 WEL =   109575000.0000                   WEL =       30000.0000     WEL_0                            
                RCHA =           0.0000                  RCHA =           0.0000     RCHA_0                           
                 CHD =    52722050.5063                   CHD =       19701.0349     CHD_0                            

           TOTAL OUT =   163537101.4017             TOTAL OUT =       49701.0349

            IN - OUT =      -8.0033E-02              IN - OUT =      -2.4900E-05

 PERCENT DISCREPANCY =          -0.00     PERCENT DISCREPANCY =          -0.00




         TIME SUMMARY AT END OF TIME STEP    6 IN STRESS PERIOD   11
                    SECONDS     MINUTES      HOURS       DAYS        YEARS
                    -----------------------------------------------------------
   TIME STEP LENGTH 9.18555E+06 1.53093E+05  2551.5      106.31     0.29107    
 STRESS PERIOD TIME 3.15576E+07 5.25960E+05  8766.0      365.25      1.0000    
         TOTAL TIME 3.15662E+08 5.26104E+06  87684.      3653.5      10.003    


end timestep


start timestep kper="12" kstp="1" mode="normal"


 OUTPUT CONTROL FOR STRESS PERIOD 12 IS REPEATED USING SETTINGS FROM A PREVIOUS STRESS PERIOD.


 STRESS PERIOD 12 IS TRANSIENT


 REUSING CSUBS FROM LAST STRESS PERIOD

end timestep


start timestep kper="12" kstp="2" mode="normal"


end timestep


start timestep kper="12" kstp="3" mode="normal"


end timestep


start timestep kper="12" kstp="4" mode="normal"


end timestep


start timestep kper="12" kstp="5" mode="normal"


end timestep


start timestep kper="12" kstp="6" mode="normal"

 UBDSV1 SAVING  CSUB-CGELASTIC  ON UNIT   1022 AT TIME STEP      6, STRESS PERIOD     12
 UBDSV06 SAVING    CSUB-ELASTIC  IN MODEL CSUB_SUB03B      PACKAGE CSUB_SUB03B     CONNECTED TO MODEL CSUB_SUB03B      PACKAGE CSUB             ON UNIT   1022 AT TIME STEP      6, STRESS PERIOD     12
 UBDSV06 SAVING  CSUB-INELASTIC  IN MODEL CSUB_SUB03B      PACKAGE CSUB_SUB03B     CONNECTED TO MODEL CSUB_SUB03B      PACKAGE CSUB             ON UNIT   1022 AT TIME STEP      6, STRESS PERIOD     12
 UBDSV1 SAVING  CSUB-WATERCOMP  ON UNIT   1022 AT TIME STEP      6, STRESS PERIOD     12

 WEL PACKAGE (WEL_0) FLOW RATES   PERIOD     12   STEP        6
 -----------------------------------------------
   NUMBER   CELLID                    RATE      
 -----------------------------------------------
     1      (3,3,6)              -14000.000     
     2      (3,3,7)              -8000.0000     
     3      (3,4,6)              -5000.0000     
     4      (3,4,7)              -3000.0000     
 -----------------------------------------------




 CSUB-COMPACTION WILL BE SAVED ON UNIT 1018 AT END OF TIME STEP    6, STRESS PERIOD   12
1
  HEAD IN LAYER   1 AT END OF TIME STEP   6 IN STRESS PERIOD   12
  ---------------------------------------------------------------------------

                1               2               3               4               5               6               7               8               9              10
 ................................................................................................................................................................
   1      19.4856         19.0549         18.2381         17.7113         17.4376         17.4032         17.6110         18.0807         18.8547         19.2624    
   2      18.3323         17.7205         17.1949         16.8115         16.5923         16.5462         16.6760         16.9793         17.4412         18.0162    
   3      16.7441         16.1480         15.6887         15.3611         15.1635         15.0957         15.1587         15.3537         15.6873         16.1872    
   4      14.6491         14.1300         13.7578         13.4956         13.3267         13.2417         13.2322         13.2848         13.3765         13.4651    
   5      11.7280         11.6173         11.4790         11.3516         11.2527         11.1890         11.1600         11.1590         11.1741         11.1896    
   6      9.33106         9.29448         9.23686         9.17462         9.12027         9.08108         9.05902         9.05151         9.05269         9.05577    
   7      7.14882         7.12350         7.08104         7.03425         6.99593         6.97367         6.96920         6.97852         6.99266         7.00256    
   8      5.12456         5.07796         4.99960         4.91722         4.86470         4.85258         4.88187         4.94403         5.00736         5.04593    
   9      3.33260         3.20701         2.98186         2.72835         2.61938         2.61351         2.71086         2.95287         3.16914         3.28993    
  10      2.07951         1.77378         1.11690         0.00000         0.00000         0.00000         0.00000         1.10425         1.75259         2.05399    
1
  HEAD IN LAYER   2 AT END OF TIME STEP   6 IN STRESS PERIOD   12
  ---------------------------------------------------------------------------

                1               2               3               4               5               6               7               8               9              10
 ................................................................................................................................................................
   1     -1.19576        -1.18279        -1.18242        -1.19121        -1.20629        -1.22553        -1.24784        -1.27352        -1.30425        -1.34289    
   2     -1.30449       -0.162196       -0.468198       -0.987339        -1.50654        -1.89655        -1.87071        -1.53516        -1.18958        -1.53542    
   3     -1.46203       -0.819382        -1.33008        -2.17507        -3.36430        -4.95955        -4.59457        -3.28837        -2.35341        -1.75004    
   4     -1.65274        -1.28181        -1.70463        -2.33186        -3.11778        -4.00085        -3.90218        -3.25251        -2.68716        -1.96059    
   5     -1.86603        -1.68271        -1.88045        -2.17202        -2.48277        -2.73517        -2.79138        -2.69508        -2.52955        -2.15495    
   6     -2.08891        -2.00729        -2.09575        -2.22460        -2.35533        -2.45890        -2.51131        -2.51649        -2.48174        -2.33946    
   7     -2.31601        -2.38473        -2.44799        -2.51579        -2.58082        -2.63154        -2.66097        -2.66934        -2.64881        -2.51994    
   8     -2.54188        -2.85946        -2.95836        -3.02339        -3.07215        -3.09874        -3.10027        -3.07747        -3.00841        -2.69655    
   9     -2.75864        -3.38964        -3.58619        -3.71841        -3.78405        -3.79846        -3.76041        -3.65242        -3.47560        -2.86383    
  10     -2.95665        -3.00051        -3.03794        -3.06714        -3.08485        -3.09112        -3.08594        -3.06924        -3.04423        -3.01270    
1
  HEAD IN LAYER   3 AT END OF TIME STEP   6 IN STRESS PERIOD   12
  ---------------------------------------------------------------------------

                1               2               3               4               5               6               7               8               9              10
 ................................................................................................................................................................
   1     -17.1864        -17.3502        -17.6569        -18.0604        -18.4844        -18.8246        -18.9777        -18.9659        -18.8881        -18.8276    
   2     -17.2993        -17.5519        -18.0523        -18.7719        -19.6271        -20.3897        -20.4604        -20.0530        -19.6416        -19.4066    
   3     -17.1632        -17.5451        -18.3639        -19.7476        -21.9632        -25.5604        -24.6986        -21.9946        -20.5245        -19.8707    
   4     -16.2391        -16.5490        -17.1888        -18.1939        -19.6103        -21.4682        -21.1943        -19.8460        -18.9670        -18.5367    
   5     -14.7645        -14.9353        -15.2665        -15.7276        -16.2510        -16.6952        -16.7780        -16.5894        -16.3701        -16.2368    
   6     -13.2238        -13.3047        -13.4556        -13.6534        -13.8607        -14.0288        -14.1118        -14.1176        -14.0891        -14.0645    
   7     -11.9003        -11.9374        -12.0054        -12.0930        -12.1847        -12.2639        -12.3186        -12.3475        -12.3583        -12.3605    
   8     -10.8988        -10.9168        -10.9493        -10.9911        -11.0357        -11.0768        -11.1096        -11.1322        -11.1453        -11.1507    
   9     -10.2386        -10.2488        -10.2664        -10.2890        -10.3134        -10.3368        -10.3566        -10.3715        -10.3809        -10.3848    
  10     -9.91131        -9.91746        -9.92869        -9.94344        -9.95984        -9.97604        -9.99042        -10.0018        -10.0095        -10.0133    

 HEAD WILL BE SAVED ON UNIT 1023 AT END OF TIME STEP    6, STRESS PERIOD   12


  VOLUME BUDGET FOR ENTIRE MODEL AT END OF TIME STEP    6, STRESS PERIOD  12
  ---------------------------------------------------------------------------------------------------

     CUMULATIVE VOLUME      L**3       RATES FOR THIS TIME STEP      L**3/T          PACKAGE NAME    
     ------------------                 ------------------------                     ----------------

           IN:                                      IN:
           ---                                      ---
              STO-SS =           0.0000                STO-SS =           0.0000     STORAGE                          
      CSUB-CGELASTIC =     1665188.3163        CSUB-CGELASTIC =          76.1451     CSUB                             
        CSUB-ELASTIC =     4439578.3639          CSUB-ELASTIC =          35.2013     CSUB                             
      CSUB-INELASTIC =    93835168.2532        CSUB-INELASTIC =       22371.3627     CSUB                             
      CSUB-WATERCOMP =           0.0000        CSUB-WATERCOMP =           0.0000     CSUB                             
                 WEL =           0.0000                   WEL =           0.0000     WEL_0                            
                RCHA =    78921000.0000                  RCHA =       27000.0000     RCHA_0                           
                 CHD =     2797865.3441                   CHD =          73.9743     CHD_0                            

            TOTAL IN =   181658800.2774              TOTAL IN =       49556.6834

          OUT:                                     OUT:
          ----                                     ----
              STO-SS =           0.0000                STO-SS =           0.0000     STORAGE                          
      CSUB-CGELASTIC =      272965.5610        CSUB-CGELASTIC =           0.0000     CSUB                             
        CSUB-ELASTIC =      967085.3344          CSUB-ELASTIC =           0.0000     CSUB                             
      CSUB-INELASTIC =           0.0000        CSUB-INELASTIC =           0.0000     CSUB                             
      CSUB-WATERCOMP =           0.0000        CSUB-WATERCOMP =           0.0000     CSUB                             
                 WEL =   120532500.0000                   WEL =       30000.0000     WEL_0                            
                RCHA =           0.0000                  RCHA =           0.0000     RCHA_0                           
                 CHD =    59886249.4710                   CHD =       19556.6834     CHD_0                            

           TOTAL OUT =   181658800.3665             TOTAL OUT =       49556.6834

            IN - OUT =      -8.9017E-02              IN - OUT =      -2.4737E-05

 PERCENT DISCREPANCY =          -0.00     PERCENT DISCREPANCY =          -0.00




         TIME SUMMARY AT END OF TIME STEP    6 IN STRESS PERIOD   12
                    SECONDS     MINUTES      HOURS       DAYS        YEARS
                    -----------------------------------------------------------
   TIME STEP LENGTH 9.18555E+06 1.53093E+05  2551.5      106.31     0.29107    
 STRESS PERIOD TIME 3.15576E+07 5.25960E+05  8766.0      365.25      1.0000    
         TOTAL TIME 3.47220E+08 5.78700E+06  96450.      4018.8      11.003    


end timestep


start timestep kper="13" kstp="1" mode="normal"


 OUTPUT CONTROL FOR STRESS PERIOD 13 IS REPEATED USING SETTINGS FROM A PREVIOUS STRESS PERIOD.


 STRESS PERIOD 13 IS TRANSIENT


 REUSING CSUBS FROM LAST STRESS PERIOD

end timestep


start timestep kper="13" kstp="2" mode="normal"


end timestep


start timestep kper="13" kstp="3" mode="normal"


end timestep


start timestep kper="13" kstp="4" mode="normal"


end timestep


start timestep kper="13" kstp="5" mode="normal"


end timestep


start timestep kper="13" kstp="6" mode="normal"

 UBDSV1 SAVING  CSUB-CGELASTIC  ON UNIT   1022 AT TIME STEP      6, STRESS PERIOD     13
 UBDSV06 SAVING    CSUB-ELASTIC  IN MODEL CSUB_SUB03B      PACKAGE CSUB_SUB03B     CONNECTED TO MODEL CSUB_SUB03B      PACKAGE CSUB             ON UNIT   1022 AT TIME STEP      6, STRESS PERIOD     13
 UBDSV06 SAVING  CSUB-INELASTIC  IN MODEL CSUB_SUB03B      PACKAGE CSUB_SUB03B     CONNECTED TO MODEL CSUB_SUB03B      PACKAGE CSUB             ON UNIT   1022 AT TIME STEP      6, STRESS PERIOD     13
 UBDSV1 SAVING  CSUB-WATERCOMP  ON UNIT   1022 AT TIME STEP      6, STRESS PERIOD     13

 WEL PACKAGE (WEL_0) FLOW RATES   PERIOD     13   STEP        6
 -----------------------------------------------
   NUMBER   CELLID                    RATE      
 -----------------------------------------------
     1      (3,3,6)              -14000.000     
     2      (3,3,7)              -8000.0000     
     3      (3,4,6)              -5000.0000     
     4      (3,4,7)              -3000.0000     
 -----------------------------------------------




 CSUB-COMPACTION WILL BE SAVED ON UNIT 1018 AT END OF TIME STEP    6, STRESS PERIOD   13
1
  HEAD IN LAYER   1 AT END OF TIME STEP   6 IN STRESS PERIOD   13
  ---------------------------------------------------------------------------

                1               2               3               4               5               6               7               8               9              10
 ................................................................................................................................................................
   1      19.4070         18.9763         18.1595         17.6326         17.3589         17.3245         17.5323         18.0020         18.7760         19.1837    
   2      18.2553         17.6434         17.1178         16.7343         16.5152         16.4690         16.5989         16.9021         17.3641         17.9391    
   3      16.6703         16.0742         15.6149         15.2872         15.0896         15.0218         15.0848         15.2798         15.6135         16.1134    
   4      14.5804         14.0613         13.6890         13.4268         13.2579         13.1729         13.1634         13.2160         13.3077         13.3963    
   5      11.6659         11.5552         11.4169         11.2895         11.1906         11.1269         11.0978         11.0968         11.1119         11.1274    
   6      9.27703         9.24049         9.18291         9.12071         9.06639         9.02719         9.00509         8.99752         8.99864         9.00170    
   7      7.10419         7.07899         7.03671         6.99010         6.95187         6.92960         6.92502         6.93416         6.94812         6.95789    
   8      5.09029         5.04404         4.96623         4.88442         4.83220         4.82008         4.84905         4.91064         4.97342         5.01163    
   9      3.30872         3.18411         2.96069         2.70911         2.60093         2.59506         2.69161         2.93169         3.14622         3.26604    
  10      2.06355         1.76017         1.10833         0.00000         0.00000         0.00000         0.00000         1.09567         1.73898         2.03802    
1
  HEAD IN LAYER   2 AT END OF TIME STEP   6 IN STRESS PERIOD   13
  ---------------------------------------------------------------------------

                1               2               3               4               5               6               7               8               9              10
 ................................................................................................................................................................
   1     -1.53172        -1.52003        -1.52066        -1.53017        -1.54568        -1.56506        -1.58721        -1.61241        -1.64236        -1.67989    
   2     -1.63423       -0.531390       -0.844074        -1.36519        -1.88612        -2.27762        -2.25278        -1.91734        -1.56571        -1.86670    
   3     -1.78429        -1.17762        -1.69488        -2.54219        -3.73357        -5.33072        -4.96669        -3.66026        -2.71920        -2.07415    
   4     -1.96640        -1.62143        -2.04920        -2.67837        -3.46611        -4.35077        -4.25302        -3.60335        -3.03358        -2.27621    
   5     -2.17028        -1.99880        -2.19909        -2.49193        -2.80393        -3.05745        -3.11447        -3.01848        -2.85099        -2.46110    
   6     -2.38339        -2.29764        -2.38601        -2.51553        -2.64706        -2.75140        -2.80447        -2.81014        -2.77598        -2.63567    
   7     -2.60086        -2.64980        -2.71046        -2.77843        -2.84393        -2.89517        -2.92513        -2.93415        -2.91662        -2.80625    
   8     -2.81772        -3.10208        -3.19613        -3.26083        -3.30976        -3.33671        -3.33875        -3.31685        -3.25292        -2.97355    
   9     -3.02653        -3.61585        -3.80594        -3.93705        -4.00251        -4.01716        -3.97979        -3.87329        -3.70315        -3.13255    
  10     -3.21794        -3.26046        -3.29690        -3.32543        -3.34284        -3.34917        -3.34440        -3.32846        -3.30455        -3.27445    
1
  HEAD IN LAYER   3 AT END OF TIME STEP   6 IN STRESS PERIOD   13
  ---------------------------------------------------------------------------

                1               2               3               4               5               6               7               8               9              10
 ................................................................................................................................................................
   1     -17.8714        -18.0363        -18.3451        -18.7512        -19.1782        -19.5211        -19.6764        -19.6660        -19.5892        -19.5290    
   2     -17.9735        -18.2276        -18.7305        -19.4533        -20.3119        -21.0775        -21.1504        -20.7441        -20.3333        -20.0984    
   3     -17.8148        -18.1983        -19.0200        -20.4075        -22.6275        -26.2286        -25.3687        -22.6649        -21.1946        -20.5405    
   4     -16.8557        -17.1670        -17.8092        -18.8177        -20.2378        -22.0988        -21.8268        -20.4791        -19.6000        -19.1697    
   5     -15.3369        -15.5087        -15.8416        -16.3051        -16.8310        -17.2773        -17.3618        -17.1741        -16.9553        -16.8220    
   6     -13.7486        -13.8300        -13.9821        -14.1813        -14.3902        -14.5598        -14.6441        -14.6508        -14.6229        -14.5986    
   7     -12.3796        -12.4170        -12.4857        -12.5743        -12.6670        -12.7473        -12.8028        -12.8325        -12.8438        -12.8463    
   8     -11.3399        -11.3581        -11.3910        -11.4333        -11.4787        -11.5205        -11.5539        -11.5771        -11.5906        -11.5963    
   9     -10.6524        -10.6627        -10.6806        -10.7035        -10.7284        -10.7523        -10.7726        -10.7879        -10.7976        -10.8017    
  10     -10.3109        -10.3172        -10.3287        -10.3437        -10.3605        -10.3771        -10.3919        -10.4036        -10.4116        -10.4155    

 HEAD WILL BE SAVED ON UNIT 1023 AT END OF TIME STEP    6, STRESS PERIOD   13


  VOLUME BUDGET FOR ENTIRE MODEL AT END OF TIME STEP    6, STRESS PERIOD  13
  ---------------------------------------------------------------------------------------------------

     CUMULATIVE VOLUME      L**3       RATES FOR THIS TIME STEP      L**3/T          PACKAGE NAME    
     ------------------                 ------------------------                     ----------------

           IN:                                      IN:
           ---                                      ---
              STO-SS =           0.0000                STO-SS =           0.0000     STORAGE                          
      CSUB-CGELASTIC =     1692937.0437        CSUB-CGELASTIC =          75.8405     CSUB                             
        CSUB-ELASTIC =     4452396.9100          CSUB-ELASTIC =          35.0173     CSUB                             
      CSUB-INELASTIC =   101973527.7315        CSUB-INELASTIC =       22221.6938     CSUB                             
      CSUB-WATERCOMP =           0.0000        CSUB-WATERCOMP =           0.0000     CSUB                             
                 WEL =           0.0000                   WEL =           0.0000     WEL_0                            
                RCHA =    88782750.0000                  RCHA =       27000.0000     RCHA_0                           
                 CHD =     2826239.5456                   CHD =          80.1710     CHD_0                            

            TOTAL IN =   199727851.2308              TOTAL IN =       49412.7227

          OUT:                                     OUT:
          ----                                     ----
              STO-SS =           0.0000                STO-SS =           0.0000     STORAGE                          
      CSUB-CGELASTIC =      272965.5610        CSUB-CGELASTIC =           0.0000     CSUB                             
        CSUB-ELASTIC =      967085.3344          CSUB-ELASTIC =           0.0000     CSUB                             
      CSUB-INELASTIC =           0.0000        CSUB-INELASTIC =           0.0000     CSUB                             
      CSUB-WATERCOMP =           0.0000        CSUB-WATERCOMP =           0.0000     CSUB                             
                 WEL =   131490000.0000                   WEL =       30000.0000     WEL_0                            
                RCHA =           0.0000                  RCHA =           0.0000     RCHA_0                           
                 CHD =    66997800.4333                   CHD =       19412.7227     CHD_0                            

           TOTAL OUT =   199727851.3288             TOTAL OUT =       49412.7227

            IN - OUT =      -9.7935E-02              IN - OUT =      -2.4528E-05

 PERCENT DISCREPANCY =          -0.00     PERCENT DISCREPANCY =          -0.00




         TIME SUMMARY AT END OF TIME STEP    6 IN STRESS PERIOD   13
                    SECONDS     MINUTES      HOURS       DAYS        YEARS
                    -----------------------------------------------------------
   TIME STEP LENGTH 9.18555E+06 1.53093E+05  2551.5      106.31     0.29107    
 STRESS PERIOD TIME 3.15576E+07 5.25960E+05  8766.0      365.25      1.0000    
         TOTAL TIME 3.78778E+08 6.31296E+06 1.05216E+05  4384.0      12.003    


end timestep


start timestep kper="14" kstp="1" mode="normal"


 OUTPUT CONTROL FOR STRESS PERIOD 14 IS REPEATED USING SETTINGS FROM A PREVIOUS STRESS PERIOD.


 STRESS PERIOD 14 IS TRANSIENT


 REUSING CSUBS FROM LAST STRESS PERIOD

end timestep


start timestep kper="14" kstp="2" mode="normal"


end timestep


start timestep kper="14" kstp="3" mode="normal"


end timestep


start timestep kper="14" kstp="4" mode="normal"


end timestep


start timestep kper="14" kstp="5" mode="normal"


end timestep


start timestep kper="14" kstp="6" mode="normal"

 UBDSV1 SAVING  CSUB-CGELASTIC  ON UNIT   1022 AT TIME STEP      6, STRESS PERIOD     14
 UBDSV06 SAVING    CSUB-ELASTIC  IN MODEL CSUB_SUB03B      PACKAGE CSUB_SUB03B     CONNECTED TO MODEL CSUB_SUB03B      PACKAGE CSUB             ON UNIT   1022 AT TIME STEP      6, STRESS PERIOD     14
 UBDSV06 SAVING  CSUB-INELASTIC  IN MODEL CSUB_SUB03B      PACKAGE CSUB_SUB03B     CONNECTED TO MODEL CSUB_SUB03B      PACKAGE CSUB             ON UNIT   1022 AT TIME STEP      6, STRESS PERIOD     14
 UBDSV1 SAVING  CSUB-WATERCOMP  ON UNIT   1022 AT TIME STEP      6, STRESS PERIOD     14

 WEL PACKAGE (WEL_0) FLOW RATES   PERIOD     14   STEP        6
 -----------------------------------------------
   NUMBER   CELLID                    RATE      
 -----------------------------------------------
     1      (3,3,6)              -14000.000     
     2      (3,3,7)              -8000.0000     
     3      (3,4,6)              -5000.0000     
     4      (3,4,7)              -3000.0000     
 -----------------------------------------------




 CSUB-COMPACTION WILL BE SAVED ON UNIT 1018 AT END OF TIME STEP    6, STRESS PERIOD   14
1
  HEAD IN LAYER   1 AT END OF TIME STEP   6 IN STRESS PERIOD   14
  ---------------------------------------------------------------------------

                1               2               3               4               5               6               7               8               9              10
 ................................................................................................................................................................
   1      19.3291         18.8984         18.0816         17.5547         17.2810         17.2466         17.4543         17.9241         18.6981         19.1058    
   2      18.1790         17.5671         17.0414         16.6579         16.4388         16.3926         16.5225         16.8257         17.2877         17.8628    
   3      16.5973         16.0012         15.5418         15.2141         15.0165         14.9486         15.0117         15.2067         15.5404         16.0403    
   4      14.5123         13.9932         13.6208         13.3586         13.1897         13.1047         13.0952         13.1478         13.2395         13.3281    
   5      11.6043         11.4936         11.3553         11.2279         11.1290         11.0653         11.0362         11.0352         11.0503         11.0658    
   6      9.22342         9.18691         9.12939         9.06723         9.01293         8.97372         8.95159         8.94396         8.94503         8.94804    
   7      7.05987         7.03479         6.99269         6.94624         6.90812         6.88584         6.88115         6.89011         6.90389         6.91353    
   8      5.05621         5.01032         4.93306         4.85180         4.79989         4.78777         4.81642         4.87745         4.93967         4.97753    
   9      3.28496         3.16133         2.93962         2.68995         2.58257         2.57669         2.67244         2.91061         3.12342         3.24226    
  10      2.04767         1.74662         1.09980         0.00000         0.00000         0.00000         0.00000         1.08714         1.72542         2.02212    
1
  HEAD IN LAYER   2 AT END OF TIME STEP   6 IN STRESS PERIOD   14
  ---------------------------------------------------------------------------

                1               2               3               4               5               6               7               8               9              10
 ................................................................................................................................................................
   1     -1.86384        -1.85333        -1.85488        -1.86504        -1.88094        -1.90044        -1.92242        -1.94718        -1.97639        -2.01287    
   2     -1.96060       -0.894528        -1.21332        -1.73612        -2.25849        -2.65125        -2.62725        -2.29187        -1.93466        -2.19436    
   3     -2.10372        -1.53048        -2.05370        -2.90295        -4.09613        -5.69485        -5.33162        -4.02498        -3.07837        -2.39513    
   4     -2.27785        -1.95702        -2.38927        -3.02007        -3.80933        -4.69531        -4.59832        -3.94865        -3.37486        -2.58931    
   5     -2.47301        -2.31267        -2.51527        -2.80918        -3.12222        -3.37668        -3.43438        -3.33866        -3.16934        -2.76543    
   6     -2.67705        -2.58774        -2.67603        -2.80611        -2.93830        -3.04329        -3.09691        -3.10302        -3.06937        -2.93078    
   7     -2.88557        -2.91651        -2.97476        -3.04285        -3.10873        -3.16042        -3.19084        -3.20043        -3.18564        -3.09219    
   8     -3.09406        -3.34788        -3.43744        -3.50180        -3.55084        -3.57809        -3.58060        -3.55953        -3.50033        -3.25086    
   9     -3.29545        -3.84625        -4.03030        -4.16032        -4.22555        -4.24042        -4.20367        -4.09861        -3.93469        -3.40216    
  10     -3.48069        -3.52197        -3.55746        -3.58537        -3.60249        -3.60886        -3.60447        -3.58925        -3.56636        -3.53759    
1
  HEAD IN LAYER   3 AT END OF TIME STEP   6 IN STRESS PERIOD   14
  ---------------------------------------------------------------------------

                1               2               3               4               5               6               7               8               9              10
 ................................................................................................................................................................
   1     -18.5436        -18.7094        -19.0199        -19.4283        -19.8578        -20.2030        -20.3601        -20.3510        -20.2749        -20.2151    
   2     -18.6357        -18.8908        -19.3958        -20.1213        -20.9828        -21.7510        -21.8257        -21.4204        -21.0100        -20.7752    
   3     -18.4559        -18.8407        -19.6647        -21.0555        -23.2789        -26.8833        -26.0250        -23.3215        -21.8511        -21.1968    
   4     -17.4645        -17.7769        -18.4213        -19.4325        -20.8556        -22.7193        -22.4488        -21.1017        -20.2227        -19.7922    
   5     -15.9053        -16.0779        -16.4123        -16.8777        -17.4056        -17.8539        -17.9397        -17.7528        -17.5343        -17.4013    
   6     -14.2734        -14.3554        -14.5084        -14.7088        -14.9191        -15.0900        -15.1753        -15.1828        -15.1554        -15.1313    
   7     -12.8630        -12.9007        -12.9700        -13.0593        -13.1529        -13.2341        -13.2904        -13.3207        -13.3324        -13.3352    
   8     -11.7884        -11.8067        -11.8399        -11.8828        -11.9287        -11.9711        -12.0051        -12.0287        -12.0426        -12.0485    
   9     -11.0758        -11.0862        -11.1043        -11.1275        -11.1528        -11.1771        -11.1979        -11.2136        -11.2236        -11.2279    
  10     -10.7214        -10.7277        -10.7394        -10.7547        -10.7719        -10.7888        -10.8039        -10.8160        -10.8242        -10.8282    

 HEAD WILL BE SAVED ON UNIT 1023 AT END OF TIME STEP    6, STRESS PERIOD   14


  VOLUME BUDGET FOR ENTIRE MODEL AT END OF TIME STEP    6, STRESS PERIOD  14
  ---------------------------------------------------------------------------------------------------

     CUMULATIVE VOLUME      L**3       RATES FOR THIS TIME STEP      L**3/T          PACKAGE NAME    
     ------------------                 ------------------------                     ----------------

           IN:                                      IN:
           ---                                      ---
              STO-SS =           0.0000                STO-SS =           0.0000     STORAGE                          
      CSUB-CGELASTIC =     1720553.2000        CSUB-CGELASTIC =          75.4454     CSUB                             
        CSUB-ELASTIC =     4465138.7206          CSUB-ELASTIC =          34.7931     CSUB                             
      CSUB-INELASTIC =   110057376.3421        CSUB-INELASTIC =       22072.7514     CSUB                             
      CSUB-WATERCOMP =           0.0000        CSUB-WATERCOMP =           0.0000     CSUB                             
                 WEL =           0.0000                   WEL =           0.0000     WEL_0                            
                RCHA =    98644500.0000                  RCHA =       27000.0000     RCHA_0                           
                 CHD =     2856886.1405                   CHD =          86.4072     CHD_0                            

            TOTAL IN =   217744454.4033              TOTAL IN =       49269.3970

          OUT:                                     OUT:
          ----                                     ----
              STO-SS =           0.0000                STO-SS =           0.0000     STORAGE                          
      CSUB-CGELASTIC =      272965.5610        CSUB-CGELASTIC =           0.0000     CSUB                             
        CSUB-ELASTIC =      967085.3344          CSUB-ELASTIC =           0.0000     CSUB                             
      CSUB-INELASTIC =           0.0000        CSUB-INELASTIC =           0.0000     CSUB                             
      CSUB-WATERCOMP =           0.0000        CSUB-WATERCOMP =           0.0000     CSUB                             
                 WEL =   142447500.0000                   WEL =       30000.0000     WEL_0                            
                RCHA =           0.0000                  RCHA =           0.0000     RCHA_0                           
                 CHD =    74056903.6146                   CHD =       19269.3971     CHD_0                            

           TOTAL OUT =   217744454.5100             TOTAL OUT =       49269.3971

            IN - OUT =          -0.1068              IN - OUT =      -2.4297E-05

 PERCENT DISCREPANCY =          -0.00     PERCENT DISCREPANCY =          -0.00




         TIME SUMMARY AT END OF TIME STEP    6 IN STRESS PERIOD   14
                    SECONDS     MINUTES      HOURS       DAYS        YEARS
                    -----------------------------------------------------------
   TIME STEP LENGTH 9.18555E+06 1.53093E+05  2551.5      106.31     0.29107    
 STRESS PERIOD TIME 3.15576E+07 5.25960E+05  8766.0      365.25      1.0000    
         TOTAL TIME 4.10335E+08 6.83892E+06 1.13982E+05  4749.2      13.003    


end timestep


start timestep kper="15" kstp="1" mode="normal"


 OUTPUT CONTROL FOR STRESS PERIOD 15 IS REPEATED USING SETTINGS FROM A PREVIOUS STRESS PERIOD.


 STRESS PERIOD 15 IS TRANSIENT


 REUSING CSUBS FROM LAST STRESS PERIOD

end timestep


start timestep kper="15" kstp="2" mode="normal"


end timestep


start timestep kper="15" kstp="3" mode="normal"


end timestep


start timestep kper="15" kstp="4" mode="normal"


end timestep


start timestep kper="15" kstp="5" mode="normal"


end timestep


start timestep kper="15" kstp="6" mode="normal"

 UBDSV1 SAVING  CSUB-CGELASTIC  ON UNIT   1022 AT TIME STEP      6, STRESS PERIOD     15
 UBDSV06 SAVING    CSUB-ELASTIC  IN MODEL CSUB_SUB03B      PACKAGE CSUB_SUB03B     CONNECTED TO MODEL CSUB_SUB03B      PACKAGE CSUB             ON UNIT   1022 AT TIME STEP      6, STRESS PERIOD     15
 UBDSV06 SAVING  CSUB-INELASTIC  IN MODEL CSUB_SUB03B      PACKAGE CSUB_SUB03B     CONNECTED TO MODEL CSUB_SUB03B      PACKAGE CSUB             ON UNIT   1022 AT TIME STEP      6, STRESS PERIOD     15
 UBDSV1 SAVING  CSUB-WATERCOMP  ON UNIT   1022 AT TIME STEP      6, STRESS PERIOD     15

 WEL PACKAGE (WEL_0) FLOW RATES   PERIOD     15   STEP        6
 -----------------------------------------------
   NUMBER   CELLID                    RATE      
 -----------------------------------------------
     1      (3,3,6)              -14000.000     
     2      (3,3,7)              -8000.0000     
     3      (3,4,6)              -5000.0000     
     4      (3,4,7)              -3000.0000     
 -----------------------------------------------




 CSUB-COMPACTION WILL BE SAVED ON UNIT 1018 AT END OF TIME STEP    6, STRESS PERIOD   15
1
  HEAD IN LAYER   1 AT END OF TIME STEP   6 IN STRESS PERIOD   15
  ---------------------------------------------------------------------------

                1               2               3               4               5               6               7               8               9              10
 ................................................................................................................................................................
   1      19.2521         18.8214         18.0045         17.4776         17.2039         17.1695         17.3772         17.8470         18.6211         19.0287    
   2      18.1036         17.4916         16.9659         16.5824         16.3632         16.3170         16.4469         16.7501         17.2122         17.7873    
   3      16.5251         15.9289         15.4695         15.1418         14.9441         14.8763         14.9393         15.1343         15.4680         15.9680    
   4      14.4449         13.9257         13.5534         13.2911         13.1222         13.0372         13.0277         13.0803         13.1720         13.2607    
   5      11.5433         11.4325         11.2943         11.1669         11.0680         11.0042         10.9751         10.9741         10.9892         11.0047    
   6      9.17026         9.13378         9.07631         9.01420         8.95993         8.92071         8.89854         8.89086         8.89187         8.89485    
   7      7.01588         6.99092         6.94899         6.90272         6.86469         6.84241         6.83761         6.84640         6.85999         6.86952    
   8      5.02237         4.97682         4.90011         4.81939         4.76779         4.75566         4.78400         4.84448         4.90615         4.94367    
   9      3.26134         3.13867         2.91867         2.67090         2.56431         2.55843         2.65339         2.88964         3.10076         3.21862    
  10      2.03186         1.73314         1.09131         0.00000         0.00000         0.00000         0.00000         1.07864         1.71193         2.00630    
1
  HEAD IN LAYER   2 AT END OF TIME STEP   6 IN STRESS PERIOD   15
  ---------------------------------------------------------------------------

                1               2               3               4               5               6               7               8               9              10
 ................................................................................................................................................................
   1     -2.19200        -2.18257        -2.18497        -2.19572        -2.21197        -2.23157        -2.25339        -2.27772        -2.30624        -2.34175    
   2     -2.28343        -1.25161        -1.57601        -2.10025        -2.62382        -3.01763        -2.99433        -2.65898        -2.29662        -2.51827    
   3     -2.42012        -1.87794        -2.40659        -3.25748        -4.45214        -6.05217        -5.68962        -4.38280        -3.43111        -2.71284    
   4     -2.58686        -2.28847        -2.72479        -3.35697        -4.14748        -5.03456        -4.93823        -4.28855        -3.71108        -2.89970    
   5     -2.77392        -2.62409        -2.82878        -3.12360        -3.43751        -3.69275        -3.75102        -3.65553        -3.48452        -3.06769    
   6     -2.96955        -2.87721        -2.96541        -3.09596        -3.22872        -3.33425        -3.38834        -3.39482        -3.36161        -3.22450    
   7     -3.16975        -3.18431        -3.24035        -3.30851        -3.37471        -3.42677        -3.45759        -3.46771        -3.45540        -3.37742    
   8     -3.37044        -3.59621        -3.68162        -3.74562        -3.79474        -3.82225        -3.82519        -3.80488        -3.75005        -3.52807    
   9     -3.56493        -4.08013        -4.25854        -4.38747        -4.45245        -4.46751        -4.43136        -4.32768        -4.16955        -3.67222    
  10     -3.74440        -3.78452        -3.81913        -3.84645        -3.86330        -3.86971        -3.86567        -3.85111        -3.82917        -3.80163    
1
  HEAD IN LAYER   3 AT END OF TIME STEP   6 IN STRESS PERIOD   15
  ---------------------------------------------------------------------------

                1               2               3               4               5               6               7               8               9              10
 ................................................................................................................................................................
   1     -19.2031        -19.3697        -19.6817        -20.0920        -20.5235        -20.8706        -21.0293        -21.0213        -20.9458        -20.8863    
   2     -19.2857        -19.5419        -20.0486        -20.7763        -21.6402        -22.4106        -22.4868        -22.0824        -21.6723        -21.4376    
   3     -19.0864        -19.4723        -20.2983        -21.6917        -23.9181        -27.5251        -26.6682        -23.9651        -22.4945        -21.8400    
   4     -18.0655        -18.3788        -19.0249        -20.0384        -21.4639        -23.3298        -23.0607        -21.7140        -20.8351        -20.4045    
   5     -16.4694        -16.6426        -16.9782        -17.4452        -17.9749        -18.4247        -18.5116        -18.3254        -18.1073        -17.9743    
   6     -14.7977        -14.8801        -15.0339        -15.2354        -15.4468        -15.6188        -15.7050        -15.7131        -15.6861        -15.6622    
   7     -13.3495        -13.3874        -13.4572        -13.5471        -13.6415        -13.7234        -13.7804        -13.8112        -13.8233        -13.8263    
   8     -12.2429        -12.2613        -12.2948        -12.3381        -12.3845        -12.4274        -12.4619        -12.4860        -12.5002        -12.5063    
   9     -11.5074        -11.5178        -11.5361        -11.5596        -11.5853        -11.6099        -11.6311        -11.6471        -11.6573        -11.6619    
  10     -11.1411        -11.1475        -11.1593        -11.1749        -11.1923        -11.2096        -11.2250        -11.2373        -11.2457        -11.2499    

 HEAD WILL BE SAVED ON UNIT 1023 AT END OF TIME STEP    6, STRESS PERIOD   15


  VOLUME BUDGET FOR ENTIRE MODEL AT END OF TIME STEP    6, STRESS PERIOD  15
  ---------------------------------------------------------------------------------------------------

     CUMULATIVE VOLUME      L**3       RATES FOR THIS TIME STEP      L**3/T          PACKAGE NAME    
     ------------------                 ------------------------                     ----------------

           IN:                                      IN:
           ---                                      ---
              STO-SS =           0.0000                STO-SS =           0.0000     STORAGE                          
      CSUB-CGELASTIC =     1748013.1023        CSUB-CGELASTIC =          74.9996     CSUB                             
        CSUB-ELASTIC =     4477793.6896          CSUB-ELASTIC =          34.5482     CSUB                             
      CSUB-INELASTIC =   118087000.5698        CSUB-INELASTIC =       21924.6256     CSUB                             
      CSUB-WATERCOMP =           0.0000        CSUB-WATERCOMP =           0.0000     CSUB                             
                 WEL =           0.0000                   WEL =           0.0000     WEL_0                            
                RCHA =   108506250.0000                  RCHA =       27000.0000     RCHA_0                           
                 CHD =     2889816.7920                   CHD =          92.6708     CHD_0                            

            TOTAL IN =   235708874.1536              TOTAL IN =       49126.8442

          OUT:                                     OUT:
          ----                                     ----
              STO-SS =           0.0000                STO-SS =           0.0000     STORAGE                          
      CSUB-CGELASTIC =      272965.5610        CSUB-CGELASTIC =           0.0000     CSUB                             
        CSUB-ELASTIC =      967085.3344          CSUB-ELASTIC =           0.0000     CSUB                             
      CSUB-INELASTIC =           0.0000        CSUB-INELASTIC =           0.0000     CSUB                             
      CSUB-WATERCOMP =           0.0000        CSUB-WATERCOMP =           0.0000     CSUB                             
                 WEL =   153405000.0000                   WEL =       30000.0000     WEL_0                            
                RCHA =           0.0000                  RCHA =           0.0000     RCHA_0                           
                 CHD =    81063823.3737                   CHD =       19126.8442     CHD_0                            

           TOTAL OUT =   235708874.2691             TOTAL OUT =       49126.8442

            IN - OUT =          -0.1155              IN - OUT =      -2.4070E-05

 PERCENT DISCREPANCY =          -0.00     PERCENT DISCREPANCY =          -0.00




         TIME SUMMARY AT END OF TIME STEP    6 IN STRESS PERIOD   15
                    SECONDS     MINUTES      HOURS       DAYS        YEARS
                    -----------------------------------------------------------
   TIME STEP LENGTH 9.18555E+06 1.53093E+05  2551.5      106.31     0.29107    
 STRESS PERIOD TIME 3.15576E+07 5.25960E+05  8766.0      365.25      1.0000    
         TOTAL TIME 4.41893E+08 7.36488E+06 1.22748E+05  5114.5      14.003    


end timestep


start timestep kper="16" kstp="1" mode="normal"


 OUTPUT CONTROL FOR STRESS PERIOD 16 IS REPEATED USING SETTINGS FROM A PREVIOUS STRESS PERIOD.


 STRESS PERIOD 16 IS TRANSIENT


 REUSING CSUBS FROM LAST STRESS PERIOD

end timestep


start timestep kper="16" kstp="2" mode="normal"


end timestep


start timestep kper="16" kstp="3" mode="normal"


end timestep


start timestep kper="16" kstp="4" mode="normal"


end timestep


start timestep kper="16" kstp="5" mode="normal"


end timestep


start timestep kper="16" kstp="6" mode="normal"

 UBDSV1 SAVING  CSUB-CGELASTIC  ON UNIT   1022 AT TIME STEP      6, STRESS PERIOD     16
 UBDSV06 SAVING    CSUB-ELASTIC  IN MODEL CSUB_SUB03B      PACKAGE CSUB_SUB03B     CONNECTED TO MODEL CSUB_SUB03B      PACKAGE CSUB             ON UNIT   1022 AT TIME STEP      6, STRESS PERIOD     16
 UBDSV06 SAVING  CSUB-INELASTIC  IN MODEL CSUB_SUB03B      PACKAGE CSUB_SUB03B     CONNECTED TO MODEL CSUB_SUB03B      PACKAGE CSUB             ON UNIT   1022 AT TIME STEP      6, STRESS PERIOD     16
 UBDSV1 SAVING  CSUB-WATERCOMP  ON UNIT   1022 AT TIME STEP      6, STRESS PERIOD     16

 WEL PACKAGE (WEL_0) FLOW RATES   PERIOD     16   STEP        6
 -----------------------------------------------
   NUMBER   CELLID                    RATE      
 -----------------------------------------------
     1      (3,3,6)              -14000.000     
     2      (3,3,7)              -8000.0000     
     3      (3,4,6)              -5000.0000     
     4      (3,4,7)              -3000.0000     
 -----------------------------------------------




 CSUB-COMPACTION WILL BE SAVED ON UNIT 1018 AT END OF TIME STEP    6, STRESS PERIOD   16
1
  HEAD IN LAYER   1 AT END OF TIME STEP   6 IN STRESS PERIOD   16
  ---------------------------------------------------------------------------

                1               2               3               4               5               6               7               8               9              10
 ................................................................................................................................................................
   1      19.1759         18.7452         17.9283         17.4014         17.1277         17.0933         17.3010         17.7707         18.5448         18.9525    
   2      18.0289         17.4169         16.8912         16.5076         16.2884         16.2423         16.3721         16.6754         17.1375         17.7126    
   3      16.4536         15.8574         15.3979         15.0702         14.8725         14.8046         14.8677         15.0627         15.3965         15.8965    
   4      14.3781         13.8590         13.4866         13.2243         13.0554         12.9703         12.9608         13.0135         13.1052         13.1939    
   5      11.4828         11.3721         11.2338         11.1064         11.0075         10.9438         10.9147         10.9136         10.9288         10.9442    
   6      9.11757         9.08113         9.02370         8.96164         8.90740         8.86817         8.84597         8.83823         8.83918         8.84213    
   7      6.97225         6.94740         6.90565         6.85954         6.82161         6.79932         6.79442         6.80303         6.81645         6.82586    
   8      4.98877         4.94355         4.86739         4.78722         4.73592         4.72379         4.75182         4.81175         4.87287         4.91005    
   9      3.23786         3.11616         2.89785         2.65197         2.54616         2.54028         2.63445         2.86881         3.07823         3.19513    
  10      2.01614         1.71974         1.08287         0.00000         0.00000         0.00000         0.00000         1.07020         1.69851         1.99058    
1
  HEAD IN LAYER   2 AT END OF TIME STEP   6 IN STRESS PERIOD   16
  ---------------------------------------------------------------------------

                1               2               3               4               5               6               7               8               9              10
 ................................................................................................................................................................
   1     -2.51619        -2.50777        -2.51094        -2.52225        -2.53881        -2.55849        -2.58015        -2.60408        -2.63195        -2.66656    
   2     -2.60269        -1.60279        -1.93233        -2.45780        -2.98238        -3.37706        -3.35436        -3.01900        -2.65189        -2.83845    
   3     -2.73344        -2.22013        -2.75373        -3.60601        -4.80190        -6.40301        -6.04103        -4.73404        -3.77771        -3.02725    
   4     -2.89331        -2.61583        -3.05585        -3.68919        -4.48075        -5.36875        -5.27295        -4.62326        -4.04242        -3.20732    
   5     -3.07287        -2.93294        -3.13955        -3.43513        -3.74977        -4.00566        -4.06442        -3.96911        -3.79654        -3.36777    
   6     -3.26067        -3.16579        -3.25392        -3.38486        -3.51808        -3.62407        -3.67857        -3.68537        -3.65253        -3.51666    
   7     -3.45315        -3.45281        -3.50682        -3.57502        -3.64147        -3.69385        -3.72502        -3.73560        -3.72557        -3.66170    
   8     -3.64658        -3.84658        -3.92814        -3.99178        -4.04094        -4.06868        -4.07199        -4.05239        -4.00160        -3.80491    
   9     -3.83462        -4.31692        -4.49005        -4.61791        -4.68263        -4.69784        -4.66226        -4.55991        -4.40718        -3.94241    
  10     -4.00871        -4.04773        -4.08152        -4.10829        -4.12487        -4.13132        -4.12760        -4.11366        -4.09261        -4.06622    
1
  HEAD IN LAYER   3 AT END OF TIME STEP   6 IN STRESS PERIOD   16
  ---------------------------------------------------------------------------

                1               2               3               4               5               6               7               8               9              10
 ................................................................................................................................................................
   1     -19.8503        -20.0176        -20.3308        -20.7427        -21.1759        -21.5246        -21.6846        -21.6775        -21.6026        -21.5433    
   2     -19.9241        -20.1811        -20.6892        -21.4188        -22.2847        -23.0569        -23.1344        -22.7307        -22.3210        -22.0863    
   3     -19.7067        -20.0935        -20.9211        -22.3167        -24.5455        -28.1547        -27.2990        -24.5961        -23.1255        -22.4709    
   4     -18.6586        -18.9727        -19.6202        -20.6356        -22.0632        -23.9310        -23.6630        -22.3167        -21.4378        -21.0072    
   5     -17.0288        -17.2026        -17.5392        -18.0075        -18.5386        -18.9897        -19.0776        -18.8920        -18.6742        -18.5414    
   6     -15.3209        -15.4036        -15.5581        -15.7604        -15.9728        -16.1457        -16.2327        -16.2414        -16.2148        -16.1910    
   7     -13.8381        -13.8762        -13.9464        -14.0369        -14.1319        -14.2144        -14.2720        -14.3033        -14.3157        -14.3189    
   8     -12.7024        -12.7209        -12.7547        -12.7983        -12.8451        -12.8885        -12.9234        -12.9478        -12.9623        -12.9686    
   9     -11.9460        -11.9564        -11.9748        -11.9986        -12.0245        -12.0495        -12.0710        -12.0873        -12.0978        -12.1024    
  10     -11.5688        -11.5753        -11.5872        -11.6030        -11.6207        -11.6382        -11.6539        -11.6664        -11.6750        -11.6792    

 HEAD WILL BE SAVED ON UNIT 1023 AT END OF TIME STEP    6, STRESS PERIOD   16


  VOLUME BUDGET FOR ENTIRE MODEL AT END OF TIME STEP    6, STRESS PERIOD  16
  ---------------------------------------------------------------------------------------------------

     CUMULATIVE VOLUME      L**3       RATES FOR THIS TIME STEP      L**3/T          PACKAGE NAME    
     ------------------                 ------------------------                     ----------------

           IN:                                      IN:
           ---                                      ---
              STO-SS =           0.0000                STO-SS =           0.0000     STORAGE                          
      CSUB-CGELASTIC =     1775303.7135        CSUB-CGELASTIC =          74.5265     CSUB                             
        CSUB-ELASTIC =     4490356.8619          CSUB-ELASTIC =          34.2936     CSUB                             
      CSUB-INELASTIC =   126062710.8676        CSUB-INELASTIC =       21777.3683     CSUB                             
      CSUB-WATERCOMP =           0.0000        CSUB-WATERCOMP =           0.0000     CSUB                             
                 WEL =           0.0000                   WEL =           0.0000     WEL_0                            
                RCHA =   118368000.0000                  RCHA =       27000.0000     RCHA_0                           
                 CHD =     2925039.4135                   CHD =          98.9525     CHD_0                            

            TOTAL IN =   253621410.8564              TOTAL IN =       48985.1410

          OUT:                                     OUT:
          ----                                     ----
              STO-SS =           0.0000                STO-SS =           0.0000     STORAGE                          
      CSUB-CGELASTIC =      272965.5610        CSUB-CGELASTIC =           0.0000     CSUB                             
        CSUB-ELASTIC =      967085.3344          CSUB-ELASTIC =           0.0000     CSUB                             
      CSUB-INELASTIC =           0.0000        CSUB-INELASTIC =           0.0000     CSUB                             
      CSUB-WATERCOMP =           0.0000        CSUB-WATERCOMP =           0.0000     CSUB                             
                 WEL =   164362500.0000                   WEL =       30000.0000     WEL_0                            
                RCHA =           0.0000                  RCHA =           0.0000     RCHA_0                           
                 CHD =    88018860.0852                   CHD =       18985.1410     CHD_0                            

           TOTAL OUT =   253621410.9806             TOTAL OUT =       48985.1410

            IN - OUT =          -0.1242              IN - OUT =      -2.3843E-05

 PERCENT DISCREPANCY =          -0.00     PERCENT DISCREPANCY =          -0.00




         TIME SUMMARY AT END OF TIME STEP    6 IN STRESS PERIOD   16
                    SECONDS     MINUTES      HOURS       DAYS        YEARS
                    -----------------------------------------------------------
   TIME STEP LENGTH 9.18555E+06 1.53093E+05  2551.5      106.31     0.29107    
 STRESS PERIOD TIME 3.15576E+07 5.25960E+05  8766.0      365.25      1.0000    
         TOTAL TIME 4.73450E+08 7.89084E+06 1.31514E+05  5479.8      15.003    


end timestep


start timestep kper="17" kstp="1" mode="normal"


 OUTPUT CONTROL FOR STRESS PERIOD 17 IS REPEATED USING SETTINGS FROM A PREVIOUS STRESS PERIOD.


 STRESS PERIOD 17 IS TRANSIENT


 REUSING CSUBS FROM LAST STRESS PERIOD

end timestep


start timestep kper="17" kstp="2" mode="normal"


end timestep


start timestep kper="17" kstp="3" mode="normal"


end timestep


start timestep kper="17" kstp="4" mode="normal"


end timestep


start timestep kper="17" kstp="5" mode="normal"


end timestep


start timestep kper="17" kstp="6" mode="normal"

 UBDSV1 SAVING  CSUB-CGELASTIC  ON UNIT   1022 AT TIME STEP      6, STRESS PERIOD     17
 UBDSV06 SAVING    CSUB-ELASTIC  IN MODEL CSUB_SUB03B      PACKAGE CSUB_SUB03B     CONNECTED TO MODEL CSUB_SUB03B      PACKAGE CSUB             ON UNIT   1022 AT TIME STEP      6, STRESS PERIOD     17
 UBDSV06 SAVING  CSUB-INELASTIC  IN MODEL CSUB_SUB03B      PACKAGE CSUB_SUB03B     CONNECTED TO MODEL CSUB_SUB03B      PACKAGE CSUB             ON UNIT   1022 AT TIME STEP      6, STRESS PERIOD     17
 UBDSV1 SAVING  CSUB-WATERCOMP  ON UNIT   1022 AT TIME STEP      6, STRESS PERIOD     17

 WEL PACKAGE (WEL_0) FLOW RATES   PERIOD     17   STEP        6
 -----------------------------------------------
   NUMBER   CELLID                    RATE      
 -----------------------------------------------
     1      (3,3,6)              -14000.000     
     2      (3,3,7)              -8000.0000     
     3      (3,4,6)              -5000.0000     
     4      (3,4,7)              -3000.0000     
 -----------------------------------------------




 CSUB-COMPACTION WILL BE SAVED ON UNIT 1018 AT END OF TIME STEP    6, STRESS PERIOD   17
1
  HEAD IN LAYER   1 AT END OF TIME STEP   6 IN STRESS PERIOD   17
  ---------------------------------------------------------------------------

                1               2               3               4               5               6               7               8               9              10
 ................................................................................................................................................................
   1      19.1006         18.6698         17.8529         17.3260         17.0523         17.0178         17.2256         17.6953         18.4694         18.8771    
   2      17.9551         17.3430         16.8172         16.4337         16.2145         16.1683         16.2982         16.6014         17.0636         17.6388    
   3      16.3829         15.7866         15.3271         14.9994         14.8017         14.7338         14.7969         14.9919         15.3256         15.8257    
   4      14.3121         13.7929         13.4205         13.1582         12.9892         12.9042         12.8947         12.9473         13.0391         13.1278    
   5      11.4230         11.3122         11.1740         11.0466         10.9477         10.8839         10.8548         10.8537         10.8689         10.8843    
   6      9.06535         9.02894         8.97156         8.90955         8.85533         8.81610         8.79386         8.78607         8.78697         8.78989    
   7      6.92897         6.90423         6.86265         6.81671         6.77888         6.75659         6.75158         6.76003         6.77327         6.78256    
   8      4.95541         4.91053         4.83491         4.75527         4.70428         4.69215         4.71987         4.77926         4.83984         4.87667    
   9      3.21454         3.09379         2.87716         2.63316         2.52813         2.52226         2.61564         2.84812         3.05585         3.17180    
  10      2.00052         1.70641         1.07448         0.00000         0.00000         0.00000         0.00000         1.06181         1.68518         1.97495    
1
  HEAD IN LAYER   2 AT END OF TIME STEP   6 IN STRESS PERIOD   17
  ---------------------------------------------------------------------------

                1               2               3               4               5               6               7               8               9              10
 ................................................................................................................................................................
   1     -2.83651        -2.82902        -2.83290        -2.84471        -2.86156        -2.88130        -2.90281        -2.92637        -2.95362        -2.98739    
   2     -2.91844        -1.94828        -2.28255        -2.80908        -3.33450        -3.72991        -3.70771        -3.37232        -3.00082        -3.15496    
   3     -3.04366        -2.55723        -3.09535        -3.94882        -5.14573        -6.74773        -6.38624        -5.07909        -4.11850        -3.33839    
   4     -3.19717        -2.93919        -3.38259        -4.01691        -4.80935        -5.69810        -5.60276        -4.95304        -4.36911        -3.51216    
   5     -3.36976        -3.23920        -3.44756        -3.74380        -4.05904        -4.31548        -4.37465        -4.27949        -4.10546        -3.66561    
   6     -3.55030        -3.45332        -3.54138        -3.67263        -3.80624        -3.91263        -3.96747        -3.97455        -3.94203        -3.80715    
   7     -3.73559        -3.72170        -3.77384        -3.84205        -3.90871        -3.96136        -3.99284        -4.00383        -3.99587        -3.94487    
   8     -3.92225        -4.09856        -4.17656        -4.23983        -4.28900        -4.31693        -4.32059        -4.30166        -4.25458        -4.08117    
   9     -4.10427        -4.55613        -4.72433        -4.85113        -4.91555        -4.93090        -4.89587        -4.79479        -4.64711        -4.21248    
  10     -4.27332        -4.31133        -4.34433        -4.37058        -4.38692        -4.39339        -4.38997        -4.37661        -4.35639        -4.33107    
1
  HEAD IN LAYER   3 AT END OF TIME STEP   6 IN STRESS PERIOD   17
  ---------------------------------------------------------------------------

                1               2               3               4               5               6               7               8               9              10
 ................................................................................................................................................................
   1     -20.4856        -20.6535        -20.9677        -21.3809        -21.8156        -22.1656        -22.3267        -22.3204        -22.2460        -22.1870    
   2     -20.5513        -20.8089        -21.3182        -22.0493        -22.9169        -23.6906        -23.7692        -23.3662        -22.9567        -22.7221    
   3     -20.3170        -20.7046        -21.5336        -22.9310        -25.1619        -28.7728        -27.9181        -25.2156        -23.7449        -23.0902    
   4     -19.2441        -19.5589        -20.2076        -21.2245        -22.6538        -24.5231        -24.2560        -22.9102        -22.0314        -21.6008    
   5     -17.5835        -17.7578        -18.0953        -18.5647        -19.0970        -19.5492        -19.6379        -19.4528        -19.2353        -19.1025    
   6     -15.8426        -15.9256        -16.0806        -16.2837        -16.4969        -16.6706        -16.7582        -16.7673        -16.7410        -16.7174    
   7     -14.3284        -14.3666        -14.4371        -14.5281        -14.6237        -14.7067        -14.7648        -14.7964        -14.8091        -14.8125    
   8     -13.1660        -13.1846        -13.2185        -13.2624        -13.3096        -13.3534        -13.3886        -13.4133        -13.4281        -13.4345    
   9     -12.3904        -12.4009        -12.4194        -12.4434        -12.4696        -12.4949        -12.5166        -12.5331        -12.5438        -12.5486    
  10     -12.0033        -12.0098        -12.0219        -12.0379        -12.0557        -12.0735        -12.0894        -12.1021        -12.1108        -12.1152    

 HEAD WILL BE SAVED ON UNIT 1023 AT END OF TIME STEP    6, STRESS PERIOD   17


  VOLUME BUDGET FOR ENTIRE MODEL AT END OF TIME STEP    6, STRESS PERIOD  17
  ---------------------------------------------------------------------------------------------------

     CUMULATIVE VOLUME      L**3       RATES FOR THIS TIME STEP      L**3/T          PACKAGE NAME    
     ------------------                 ------------------------                     ----------------

           IN:                                      IN:
           ---                                      ---
              STO-SS =           0.0000                STO-SS =           0.0000     STORAGE                          
      CSUB-CGELASTIC =     1802418.1373        CSUB-CGELASTIC =          74.0393     CSUB                             
        CSUB-ELASTIC =     4502826.1882          CSUB-ELASTIC =          34.0357     CSUB                             
      CSUB-INELASTIC =   133984831.3905        CSUB-INELASTIC =       21631.0090     CSUB                             
      CSUB-WATERCOMP =           0.0000        CSUB-WATERCOMP =           0.0000     CSUB                             
                 WEL =           0.0000                   WEL =           0.0000     WEL_0                            
                RCHA =   128229750.0000                  RCHA =       27000.0000     RCHA_0                           
                 CHD =     2962559.0189                   CHD =         105.2452     CHD_0                            

            TOTAL IN =   271482384.7349              TOTAL IN =       48844.3292

          OUT:                                     OUT:
          ----                                     ----
              STO-SS =           0.0000                STO-SS =           0.0000     STORAGE                          
      CSUB-CGELASTIC =      272965.5610        CSUB-CGELASTIC =           0.0000     CSUB                             
        CSUB-ELASTIC =      967085.3344          CSUB-ELASTIC =           0.0000     CSUB                             
      CSUB-INELASTIC =           0.0000        CSUB-INELASTIC =           0.0000     CSUB                             
      CSUB-WATERCOMP =           0.0000        CSUB-WATERCOMP =           0.0000     CSUB                             
                 WEL =   175320000.0000                   WEL =       30000.0000     WEL_0                            
                RCHA =           0.0000                  RCHA =           0.0000     RCHA_0                           
                 CHD =    94922333.9722                   CHD =       18844.3292     CHD_0                            

           TOTAL OUT =   271482384.8676             TOTAL OUT =       48844.3292

            IN - OUT =          -0.1328              IN - OUT =      -2.3609E-05

 PERCENT DISCREPANCY =          -0.00     PERCENT DISCREPANCY =          -0.00




         TIME SUMMARY AT END OF TIME STEP    6 IN STRESS PERIOD   17
                    SECONDS     MINUTES      HOURS       DAYS        YEARS
                    -----------------------------------------------------------
   TIME STEP LENGTH 9.18555E+06 1.53093E+05  2551.5      106.31     0.29107    
 STRESS PERIOD TIME 3.15576E+07 5.25960E+05  8766.0      365.25      1.0000    
         TOTAL TIME 5.05008E+08 8.41680E+06 1.40280E+05  5845.0      16.003    


end timestep


start timestep kper="18" kstp="1" mode="normal"


 OUTPUT CONTROL FOR STRESS PERIOD 18 IS REPEATED USING SETTINGS FROM A PREVIOUS STRESS PERIOD.


 STRESS PERIOD 18 IS TRANSIENT


 REUSING CSUBS FROM LAST STRESS PERIOD

end timestep


start timestep kper="18" kstp="2" mode="normal"


end timestep


start timestep kper="18" kstp="3" mode="normal"


end timestep


start timestep kper="18" kstp="4" mode="normal"


end timestep


start timestep kper="18" kstp="5" mode="normal"


end timestep


start timestep kper="18" kstp="6" mode="normal"

 UBDSV1 SAVING  CSUB-CGELASTIC  ON UNIT   1022 AT TIME STEP      6, STRESS PERIOD     18
 UBDSV06 SAVING    CSUB-ELASTIC  IN MODEL CSUB_SUB03B      PACKAGE CSUB_SUB03B     CONNECTED TO MODEL CSUB_SUB03B      PACKAGE CSUB             ON UNIT   1022 AT TIME STEP      6, STRESS PERIOD     18
 UBDSV06 SAVING  CSUB-INELASTIC  IN MODEL CSUB_SUB03B      PACKAGE CSUB_SUB03B     CONNECTED TO MODEL CSUB_SUB03B      PACKAGE CSUB             ON UNIT   1022 AT TIME STEP      6, STRESS PERIOD     18
 UBDSV1 SAVING  CSUB-WATERCOMP  ON UNIT   1022 AT TIME STEP      6, STRESS PERIOD     18

 WEL PACKAGE (WEL_0) FLOW RATES   PERIOD     18   STEP        6
 -----------------------------------------------
   NUMBER   CELLID                    RATE      
 -----------------------------------------------
     1      (3,3,6)              -14000.000     
     2      (3,3,7)              -8000.0000     
     3      (3,4,6)              -5000.0000     
     4      (3,4,7)              -3000.0000     
 -----------------------------------------------




 CSUB-COMPACTION WILL BE SAVED ON UNIT 1018 AT END OF TIME STEP    6, STRESS PERIOD   18
1
  HEAD IN LAYER   1 AT END OF TIME STEP   6 IN STRESS PERIOD   18
  ---------------------------------------------------------------------------

                1               2               3               4               5               6               7               8               9              10
 ................................................................................................................................................................
   1      19.0260         18.5952         17.7783         17.2514         16.9777         16.9432         17.1510         17.6207         18.3949         18.8025    
   2      17.8820         17.2699         16.7441         16.3605         16.1413         16.0951         16.2250         16.5283         16.9904         17.5657    
   3      16.3128         15.7165         15.2570         14.9293         14.7316         14.6637         14.7267         14.9218         15.2556         15.7557    
   4      14.2467         13.7274         13.3550         13.0927         12.9237         12.8387         12.8292         12.8819         12.9736         13.0623    
   5      11.3637         11.2529         11.1147         10.9873         10.8884         10.8246         10.7955         10.7944         10.8095         10.8250    
   6      9.01360         8.97721         8.91989         8.85792         8.80373         8.76450         8.74222         8.73437         8.73523         8.73811    
   7      6.88605         6.86142         6.82001         6.77423         6.73650         6.71421         6.70910         6.71737         6.73044         6.73962    
   8      4.92230         4.87776         4.80266         4.72357         4.67288         4.66074         4.68816         4.74701         4.80705         4.84356    
   9      3.19138         3.07158         2.85662         2.61448         2.51023         2.50435         2.59695         2.82757         3.03363         3.14863    
  10      1.98499         1.69317         1.06614         0.00000         0.00000         0.00000         0.00000         1.05346         1.67194         1.95942    
1
  HEAD IN LAYER   2 AT END OF TIME STEP   6 IN STRESS PERIOD   18
  ---------------------------------------------------------------------------

                1               2               3               4               5               6               7               8               9              10
 ................................................................................................................................................................
   1     -3.15306        -3.14643        -3.15097        -3.16324        -3.18035        -3.20015        -3.22151        -3.24471        -3.27139        -3.30437    
   2     -3.23076        -2.28833        -2.62695        -3.15440        -3.68052        -4.07655        -4.05476        -3.71933        -3.34375        -3.46792    
   3     -3.35085        -2.88945        -3.43172        -4.28620        -5.48396        -7.08671        -6.72561        -5.41833        -4.45381        -3.64635    
   4     -3.49845        -3.25866        -3.70517        -4.34033        -5.13349        -6.02287        -5.92792        -5.27817        -4.69138        -3.81426    
   5     -3.66456        -3.54288        -3.75285        -4.04964        -4.36539        -4.62229        -4.68180        -4.58676        -4.41137        -3.96121    
   6     -3.83834        -3.73965        -3.82766        -3.95918        -4.09311        -4.19982        -4.25496        -4.26228        -4.23003        -4.09592    
   7     -4.01693        -3.99073        -4.04115        -4.10935        -4.17617        -4.22906        -4.26080        -4.27217        -4.26610        -4.22683    
   8     -4.19728        -4.35180        -4.42650        -4.48940        -4.53856        -4.56665        -4.57063        -4.55233        -4.50868        -4.35669    
   9     -4.37368        -4.79734        -4.96091        -5.08666        -5.15079        -5.16626        -5.13175        -5.03190        -4.88895        -4.48223    
  10     -4.53801        -4.57505        -4.60733        -4.63308        -4.64919        -4.65568        -4.65255        -4.63972        -4.62028        -4.59596    
1
  HEAD IN LAYER   3 AT END OF TIME STEP   6 IN STRESS PERIOD   18
  ---------------------------------------------------------------------------

                1               2               3               4               5               6               7               8               9              10
 ................................................................................................................................................................
   1     -21.1096        -21.2780        -21.5931        -22.0074        -22.4433        -22.7945        -22.9565        -22.9508        -22.8768        -22.8180    
   2     -21.1677        -21.4259        -21.9362        -22.6686        -23.5376        -24.3126        -24.3921        -23.9895        -23.5804        -23.3458    
   3     -20.9180        -21.3062        -22.1363        -23.5353        -25.7678        -29.3802        -28.5263        -25.8240        -24.3534        -23.6986    
   4     -19.8222        -20.1375        -20.7873        -21.8055        -23.2362        -25.1068        -24.8405        -23.4950        -22.6163        -22.1856    
   5     -18.1335        -18.3082        -18.6464        -19.1168        -19.6501        -20.1032        -20.1926        -20.0079        -19.7906        -19.6579    
   6     -16.3626        -16.4458        -16.6013        -16.8050        -17.0189        -17.1932        -17.2814        -17.2909        -17.2649        -17.2414    
   7     -14.8196        -14.8580        -14.9288        -15.0202        -15.1162        -15.1996        -15.2581        -15.2901        -15.3031        -15.3065    
   8     -13.6329        -13.6516        -13.6857        -13.7299        -13.7773        -13.8214        -13.8570        -13.8820        -13.8969        -13.9035    
   9     -12.8399        -12.8503        -12.8690        -12.8931        -12.9195        -12.9450        -12.9670        -12.9838        -12.9946        -12.9996    
  10     -12.4437        -12.4503        -12.4624        -12.4785        -12.4966        -12.5145        -12.5306        -12.5435        -12.5524        -12.5568    

 HEAD WILL BE SAVED ON UNIT 1023 AT END OF TIME STEP    6, STRESS PERIOD   18


  VOLUME BUDGET FOR ENTIRE MODEL AT END OF TIME STEP    6, STRESS PERIOD  18
  ---------------------------------------------------------------------------------------------------

     CUMULATIVE VOLUME      L**3       RATES FOR THIS TIME STEP      L**3/T          PACKAGE NAME    
     ------------------                 ------------------------                     ----------------

           IN:                                      IN:
           ---                                      ---
              STO-SS =           0.0000                STO-SS =           0.0000     STORAGE                          
      CSUB-CGELASTIC =     1829353.0195        CSUB-CGELASTIC =          73.5456     CSUB                             
        CSUB-ELASTIC =     4515201.2423          CSUB-ELASTIC =          33.7778     CSUB                             
      CSUB-INELASTIC =   141853693.9568        CSUB-INELASTIC =       21485.5639     CSUB                             
      CSUB-WATERCOMP =           0.0000        CSUB-WATERCOMP =           0.0000     CSUB                             
                 WEL =           0.0000                   WEL =           0.0000     WEL_0                            
                RCHA =   138091500.0000                  RCHA =       27000.0000     RCHA_0                           
                 CHD =     3002378.2951                   CHD =         111.5429     CHD_0                            

            TOTAL IN =   289292126.5136              TOTAL IN =       48704.4302

          OUT:                                     OUT:
          ----                                     ----
              STO-SS =           0.0000                STO-SS =           0.0000     STORAGE                          
      CSUB-CGELASTIC =      272965.5610        CSUB-CGELASTIC =           0.0000     CSUB                             
        CSUB-ELASTIC =      967085.3344          CSUB-ELASTIC =           0.0000     CSUB                             
      CSUB-INELASTIC =           0.0000        CSUB-INELASTIC =           0.0000     CSUB                             
      CSUB-WATERCOMP =           0.0000        CSUB-WATERCOMP =           0.0000     CSUB                             
                 WEL =   186277500.0000                   WEL =       30000.0000     WEL_0                            
                RCHA =           0.0000                  RCHA =           0.0000     RCHA_0                           
                 CHD =   101774575.7596                   CHD =       18704.4303     CHD_0                            

           TOTAL OUT =   289292126.6551             TOTAL OUT =       48704.4303

            IN - OUT =          -0.1415              IN - OUT =      -2.5620E-05

 PERCENT DISCREPANCY =          -0.00     PERCENT DISCREPANCY =          -0.00




         TIME SUMMARY AT END OF TIME STEP    6 IN STRESS PERIOD   18
                    SECONDS     MINUTES      HOURS       DAYS        YEARS
                    -----------------------------------------------------------
   TIME STEP LENGTH 9.18555E+06 1.53093E+05  2551.5      106.31     0.29107    
 STRESS PERIOD TIME 3.15576E+07 5.25960E+05  8766.0      365.25      1.0000    
         TOTAL TIME 5.36566E+08 8.94276E+06 1.49046E+05  6210.2      17.003    


end timestep


start timestep kper="19" kstp="1" mode="normal"


 OUTPUT CONTROL FOR STRESS PERIOD 19 IS REPEATED USING SETTINGS FROM A PREVIOUS STRESS PERIOD.


 STRESS PERIOD 19 IS TRANSIENT


 REUSING CSUBS FROM LAST STRESS PERIOD

end timestep


start timestep kper="19" kstp="2" mode="normal"


end timestep


start timestep kper="19" kstp="3" mode="normal"


end timestep


start timestep kper="19" kstp="4" mode="normal"


end timestep


start timestep kper="19" kstp="5" mode="normal"


end timestep


start timestep kper="19" kstp="6" mode="normal"

 UBDSV1 SAVING  CSUB-CGELASTIC  ON UNIT   1022 AT TIME STEP      6, STRESS PERIOD     19
 UBDSV06 SAVING    CSUB-ELASTIC  IN MODEL CSUB_SUB03B      PACKAGE CSUB_SUB03B     CONNECTED TO MODEL CSUB_SUB03B      PACKAGE CSUB             ON UNIT   1022 AT TIME STEP      6, STRESS PERIOD     19
 UBDSV06 SAVING  CSUB-INELASTIC  IN MODEL CSUB_SUB03B      PACKAGE CSUB_SUB03B     CONNECTED TO MODEL CSUB_SUB03B      PACKAGE CSUB             ON UNIT   1022 AT TIME STEP      6, STRESS PERIOD     19
 UBDSV1 SAVING  CSUB-WATERCOMP  ON UNIT   1022 AT TIME STEP      6, STRESS PERIOD     19

 WEL PACKAGE (WEL_0) FLOW RATES   PERIOD     19   STEP        6
 -----------------------------------------------
   NUMBER   CELLID                    RATE      
 -----------------------------------------------
     1      (3,3,6)              -14000.000     
     2      (3,3,7)              -8000.0000     
     3      (3,4,6)              -5000.0000     
     4      (3,4,7)              -3000.0000     
 -----------------------------------------------




 CSUB-COMPACTION WILL BE SAVED ON UNIT 1018 AT END OF TIME STEP    6, STRESS PERIOD   19
1
  HEAD IN LAYER   1 AT END OF TIME STEP   6 IN STRESS PERIOD   19
  ---------------------------------------------------------------------------

                1               2               3               4               5               6               7               8               9              10
 ................................................................................................................................................................
   1      18.9522         18.5214         17.7045         17.1775         16.9038         16.8694         17.0771         17.5469         18.3210         18.7287    
   2      17.8097         17.1976         16.6717         16.2882         16.0689         16.0227         16.1526         16.4559         16.9181         17.4933    
   3      16.2435         15.6472         15.1877         14.8599         14.6622         14.5943         14.6574         14.8524         15.1862         15.6863    
   4      14.1819         13.6627         13.2902         13.0279         12.8589         12.7739         12.7644         12.8171         12.9088         12.9976    
   5      11.3049         11.1942         11.0559         10.9285         10.8296         10.7659         10.7367         10.7357         10.7508         10.7662    
   6      8.96230         8.92594         8.86866         8.80674         8.75258         8.71334         8.69104         8.68314         8.68394         8.68679    
   7      6.84347         6.81896         6.77772         6.73210         6.69447         6.67217         6.66696         6.67506         6.68796         6.69703    
   8      4.88945         4.84523         4.77066         4.69210         4.64171         4.62957         4.65668         4.71500         4.77451         4.81069    
   9      3.16837         3.04951         2.83621         2.59592         2.49244         2.48656         2.57839         2.80715         3.01156         3.12562    
  10      1.96957         1.68002         1.05786         0.00000         0.00000         0.00000         0.00000         1.04518         1.65878         1.94399    
1
  HEAD IN LAYER   2 AT END OF TIME STEP   6 IN STRESS PERIOD   19
  ---------------------------------------------------------------------------

                1               2               3               4               5               6               7               8               9              10
 ................................................................................................................................................................
   1     -3.46597        -3.46013        -3.46529        -3.47798        -3.49533        -3.51518        -3.53640        -3.55926        -3.58540        -3.61765    
   2     -3.53974        -2.62320        -2.96583        -3.49407        -4.02078        -4.41732        -4.39589        -4.06039        -3.68103        -3.77745    
   3     -3.65507        -3.21701        -3.76310        -4.61845        -5.81691        -7.42027        -7.05952        -5.75209        -4.78395        -3.95122    
   4     -3.79717        -3.57441        -4.02376        -4.65965        -5.45340        -6.34331        -6.24869        -5.59889        -5.00946        -4.11367    
   5     -3.95724        -3.84399        -4.05546        -4.35272        -4.66889        -4.92618        -4.98598        -4.89104        -4.71436        -4.25457    
   6     -4.12474        -4.02469        -4.11267        -4.24441        -4.37861        -4.48560        -4.54099        -4.54851        -4.51648        -4.38293    
   7     -4.29707        -4.25969        -4.30853        -4.37670        -4.44366        -4.49674        -4.52872        -4.54043        -4.53608        -4.50751    
   8     -4.47153        -4.60601        -4.67763        -4.74017        -4.78929        -4.81752        -4.82180        -4.80408        -4.76362        -4.63136    
   9     -4.64267        -5.04020        -5.19943        -5.32414        -5.38796        -5.40353        -5.36951        -5.27087        -5.13234        -4.75152    
  10     -4.80257        -4.83872        -4.87030        -4.89558        -4.91147        -4.91798        -4.91511        -4.90280        -4.88408        -4.86069    
1
  HEAD IN LAYER   3 AT END OF TIME STEP   6 IN STRESS PERIOD   19
  ---------------------------------------------------------------------------

                1               2               3               4               5               6               7               8               9              10
 ................................................................................................................................................................
   1     -21.7229        -21.8917        -22.2075        -22.6227        -23.0596        -23.4118        -23.5746        -23.5695        -23.4958        -23.4371    
   2     -21.7739        -22.0326        -22.5437        -23.2772        -24.1474        -24.9234        -25.0037        -24.6016        -24.1927        -23.9582    
   3     -21.5100        -21.8987        -22.7298        -24.1299        -26.3638        -29.9776        -29.1244        -26.4223        -24.9517        -24.2969    
   4     -20.3932        -20.7091        -21.3596        -22.3789        -23.8108        -25.6824        -25.4168        -24.0716        -23.1930        -22.7623    
   5     -18.6790        -18.8540        -19.1928        -19.6639        -20.1980        -20.6519        -20.7419        -20.5576        -20.3405        -20.2079    
   6     -16.8806        -16.9640        -17.1199        -17.3241        -17.5385        -17.7134        -17.8020        -17.8119        -17.7861        -17.7627    
   7     -15.3114        -15.3499        -15.4209        -15.5127        -15.6090        -15.6929        -15.7517        -15.7840        -15.7972        -15.8008    
   8     -14.1026        -14.1213        -14.1555        -14.1999        -14.2476        -14.2919        -14.3278        -14.3530        -14.3681        -14.3748    
   9     -13.2935        -13.3040        -13.3227        -13.3470        -13.3736        -13.3993        -13.4215        -13.4384        -13.4495        -13.4545    
  10     -12.8890        -12.8957        -12.9079        -12.9241        -12.9423        -12.9605        -12.9767        -12.9898        -12.9988        -13.0033    

 HEAD WILL BE SAVED ON UNIT 1023 AT END OF TIME STEP    6, STRESS PERIOD   19


  VOLUME BUDGET FOR ENTIRE MODEL AT END OF TIME STEP    6, STRESS PERIOD  19
  ---------------------------------------------------------------------------------------------------

     CUMULATIVE VOLUME      L**3       RATES FOR THIS TIME STEP      L**3/T          PACKAGE NAME    
     ------------------                 ------------------------                     ----------------

           IN:                                      IN:
           ---                                      ---
              STO-SS =           0.0000                STO-SS =           0.0000     STORAGE                          
      CSUB-CGELASTIC =     1856107.0445        CSUB-CGELASTIC =          73.0499     CSUB                             
        CSUB-ELASTIC =     4527482.4869          CSUB-ELASTIC =          33.5218     CSUB                             
      CSUB-INELASTIC =   149669634.4784        CSUB-INELASTIC =       21341.0414     CSUB                             
      CSUB-WATERCOMP =           0.0000        CSUB-WATERCOMP =           0.0000     CSUB                             
                 WEL =           0.0000                   WEL =           0.0000     WEL_0                            
                RCHA =   147953250.0000                  RCHA =       27000.0000     RCHA_0                           
                 CHD =     3044498.0022                   CHD =         117.8409     CHD_0                            

            TOTAL IN =   307050972.0121              TOTAL IN =       48565.4540

          OUT:                                     OUT:
          ----                                     ----
              STO-SS =           0.0000                STO-SS =           0.0000     STORAGE                          
      CSUB-CGELASTIC =      272965.5610        CSUB-CGELASTIC =           0.0000     CSUB                             
        CSUB-ELASTIC =      967085.3344          CSUB-ELASTIC =           0.0000     CSUB                             
      CSUB-INELASTIC =           0.0000        CSUB-INELASTIC =           0.0000     CSUB                             
      CSUB-WATERCOMP =           0.0000        CSUB-WATERCOMP =           0.0000     CSUB                             
                 WEL =   197235000.0000                   WEL =       30000.0000     WEL_0                            
                RCHA =           0.0000                  RCHA =           0.0000     RCHA_0                           
                 CHD =   108575921.2670                   CHD =       18565.4540     CHD_0                            

           TOTAL OUT =   307050972.1624             TOTAL OUT =       48565.4540

            IN - OUT =          -0.1504              IN - OUT =      -2.5221E-05

 PERCENT DISCREPANCY =          -0.00     PERCENT DISCREPANCY =          -0.00




         TIME SUMMARY AT END OF TIME STEP    6 IN STRESS PERIOD   19
                    SECONDS     MINUTES      HOURS       DAYS        YEARS
                    -----------------------------------------------------------
   TIME STEP LENGTH 9.18555E+06 1.53093E+05  2551.5      106.31     0.29107    
 STRESS PERIOD TIME 3.15576E+07 5.25960E+05  8766.0      365.25      1.0000    
         TOTAL TIME 5.68123E+08 9.46872E+06 1.57812E+05  6575.5      18.003    


end timestep


start timestep kper="20" kstp="1" mode="normal"


 OUTPUT CONTROL FOR STRESS PERIOD 20 IS REPEATED USING SETTINGS FROM A PREVIOUS STRESS PERIOD.


 STRESS PERIOD 20 IS TRANSIENT


 REUSING CSUBS FROM LAST STRESS PERIOD

end timestep


start timestep kper="20" kstp="2" mode="normal"


end timestep


start timestep kper="20" kstp="3" mode="normal"


end timestep


start timestep kper="20" kstp="4" mode="normal"


end timestep


start timestep kper="20" kstp="5" mode="normal"


end timestep


start timestep kper="20" kstp="6" mode="normal"

 UBDSV1 SAVING  CSUB-CGELASTIC  ON UNIT   1022 AT TIME STEP      6, STRESS PERIOD     20
 UBDSV06 SAVING    CSUB-ELASTIC  IN MODEL CSUB_SUB03B      PACKAGE CSUB_SUB03B     CONNECTED TO MODEL CSUB_SUB03B      PACKAGE CSUB             ON UNIT   1022 AT TIME STEP      6, STRESS PERIOD     20
 UBDSV06 SAVING  CSUB-INELASTIC  IN MODEL CSUB_SUB03B      PACKAGE CSUB_SUB03B     CONNECTED TO MODEL CSUB_SUB03B      PACKAGE CSUB             ON UNIT   1022 AT TIME STEP      6, STRESS PERIOD     20
 UBDSV1 SAVING  CSUB-WATERCOMP  ON UNIT   1022 AT TIME STEP      6, STRESS PERIOD     20

 WEL PACKAGE (WEL_0) FLOW RATES   PERIOD     20   STEP        6
 -----------------------------------------------
   NUMBER   CELLID                    RATE      
 -----------------------------------------------
     1      (3,3,6)              -14000.000     
     2      (3,3,7)              -8000.0000     
     3      (3,4,6)              -5000.0000     
     4      (3,4,7)              -3000.0000     
 -----------------------------------------------




 CSUB-COMPACTION WILL BE SAVED ON UNIT 1018 AT END OF TIME STEP    6, STRESS PERIOD   20
1
  HEAD IN LAYER   1 AT END OF TIME STEP   6 IN STRESS PERIOD   20
  ---------------------------------------------------------------------------

                1               2               3               4               5               6               7               8               9              10
 ................................................................................................................................................................
   1      18.8792         18.4484         17.6315         17.1045         16.8307         16.7963         17.0041         17.4738         18.2480         18.6557    
   2      17.7381         17.1259         16.6001         16.2165         15.9973         15.9511         16.0809         16.3842         16.8464         17.4217    
   3      16.1749         15.5786         15.1190         14.7912         14.5935         14.5256         14.5887         14.7837         15.1175         15.6177    
   4      14.1178         13.5985         13.2260         12.9637         12.7947         12.7097         12.7002         12.7529         12.8446         12.9334    
   5      11.2467         11.1360         10.9977         10.8703         10.7714         10.7077         10.6785         10.6775         10.6926         10.7080    
   6      8.91144         8.87511         8.81788         8.75601         8.70188         8.66264         8.64030         8.63235         8.63310         8.63592    
   7      6.80124         6.77684         6.73576         6.69031         6.65277         6.63047         6.62516         6.63310         6.64583         6.65479    
   8      4.85684         4.81294         4.73890         4.66086         4.61077         4.59863         4.62544         4.68323         4.74222         4.77807    
   9      3.14553         3.02760         2.81594         2.57749         2.47478         2.46889         2.55996         2.78688         2.98964         3.10277    
  10      1.95424         1.66694         1.04963         0.00000         0.00000         0.00000         0.00000         1.03694         1.64570         1.92866    
1
  HEAD IN LAYER   2 AT END OF TIME STEP   6 IN STRESS PERIOD   20
  ---------------------------------------------------------------------------

                1               2               3               4               5               6               7               8               9              10
 ................................................................................................................................................................
   1     -3.77537        -3.77028        -3.77600        -3.78908        -3.80664        -3.82654        -3.84762        -3.87016        -3.89580        -3.92735    
   2     -3.84549        -2.95312        -3.29947        -3.82840        -4.35561        -4.75258        -4.73143        -4.39586        -4.01298        -4.08365    
   3     -3.95638        -3.54013        -4.08974        -4.94583        -6.14488        -7.74875        -7.38829        -6.08073        -5.10923        -4.25308    
   4     -4.09337        -3.88656        -4.33855        -4.97505        -5.76930        -6.65965        -6.56530        -5.91546        -5.32357        -4.41045    
   5     -4.24782        -4.14259        -4.35545        -4.65310        -4.96963        -5.22724        -5.28729        -5.19242        -5.01453        -4.54572    
   6     -4.40945        -4.30838        -4.39635        -4.52826        -4.66269        -4.76992        -4.82551        -4.83322        -4.80135        -4.66816    
   7     -4.57595        -4.52841        -4.57580        -4.64392        -4.71098        -4.76423        -4.79641        -4.80843        -4.80566        -4.78683    
   8     -4.74490        -4.86090        -4.92968        -4.99185        -5.04092        -5.06926        -5.07383        -5.05666        -5.01913        -4.90508    
   9     -4.91110        -5.28438        -5.43952        -5.56322        -5.62672        -5.64237        -5.60884        -5.51135        -5.37697        -5.02020    
  10     -5.06685        -5.10214        -5.13308        -5.15792        -5.17359        -5.18012        -5.17750        -5.16566        -5.14762        -5.12511    
1
  HEAD IN LAYER   3 AT END OF TIME STEP   6 IN STRESS PERIOD   20
  ---------------------------------------------------------------------------

                1               2               3               4               5               6               7               8               9              10
 ................................................................................................................................................................
   1     -22.3260        -22.4951        -22.8115        -23.2275        -23.6653        -24.0182        -24.1817        -24.1771        -24.1037        -24.0451    
   2     -22.3705        -22.6295        -23.1414        -23.8758        -24.7469        -25.5238        -25.6047        -25.2031        -24.7943        -24.5598    
   3     -22.0934        -22.4826        -23.3144        -24.7156        -26.9506        -30.5654        -29.7128        -27.0109        -25.5404        -24.8855    
   4     -20.9575        -21.2737        -21.9249        -22.9451        -24.3780        -26.2505        -25.9855        -24.6405        -23.7619        -23.3313    
   5     -19.2198        -19.3951        -19.7344        -20.2062        -20.7410        -21.1955        -21.2860        -21.1021        -20.8851        -20.7525    
   6     -17.3964        -17.4800        -17.6362        -17.8409        -18.0558        -18.2311        -18.3201        -18.3303        -18.3047        -18.2814    
   7     -15.8034        -15.8420        -15.9132        -16.0052        -16.1019        -16.1861        -16.2452        -16.2777        -16.2911        -16.2948    
   8     -14.5743        -14.5931        -14.6274        -14.6719        -14.7199        -14.7645        -14.8005        -14.8259        -14.8412        -14.8481    
   9     -13.7507        -13.7612        -13.7799        -13.8043        -13.8311        -13.8570        -13.8793        -13.8965        -13.9076        -13.9128    
  10     -13.3386        -13.3453        -13.3576        -13.3739        -13.3922        -13.4105        -13.4269        -13.4401        -13.4492        -13.4538    

 HEAD WILL BE SAVED ON UNIT 1023 AT END OF TIME STEP    6, STRESS PERIOD   20


  VOLUME BUDGET FOR ENTIRE MODEL AT END OF TIME STEP    6, STRESS PERIOD  20
  ---------------------------------------------------------------------------------------------------

     CUMULATIVE VOLUME      L**3       RATES FOR THIS TIME STEP      L**3/T          PACKAGE NAME    
     ------------------                 ------------------------                     ----------------

           IN:                                      IN:
           ---                                      ---
              STO-SS =           0.0000                STO-SS =           0.0000     STORAGE                          
      CSUB-CGELASTIC =     1882680.0646        CSUB-CGELASTIC =          72.5546     CSUB                             
        CSUB-ELASTIC =     4539670.8543          CSUB-ELASTIC =          33.2688     CSUB                             
      CSUB-INELASTIC =   157432990.8349        CSUB-INELASTIC =       21197.4451     CSUB                             
      CSUB-WATERCOMP =           0.0000        CSUB-WATERCOMP =           0.0000     CSUB                             
                 WEL =           0.0000                   WEL =           0.0000     WEL_0                            
                RCHA =   157815000.0000                  RCHA =       27000.0000     RCHA_0                           
                 CHD =     3088917.2652                   CHD =         124.1348     CHD_0                            

            TOTAL IN =   324759259.0189              TOTAL IN =       48427.4033

          OUT:                                     OUT:
          ----                                     ----
              STO-SS =           0.0000                STO-SS =           0.0000     STORAGE                          
      CSUB-CGELASTIC =      272965.5610        CSUB-CGELASTIC =           0.0000     CSUB                             
        CSUB-ELASTIC =      967085.3344          CSUB-ELASTIC =           0.0000     CSUB                             
      CSUB-INELASTIC =           0.0000        CSUB-INELASTIC =           0.0000     CSUB                             
      CSUB-WATERCOMP =           0.0000        CSUB-WATERCOMP =           0.0000     CSUB                             
                 WEL =   208192500.0000                   WEL =       30000.0000     WEL_0                            
                RCHA =           0.0000                  RCHA =           0.0000     RCHA_0                           
                 CHD =   115326708.2827                   CHD =       18427.4033     CHD_0                            

           TOTAL OUT =   324759259.1781             TOTAL OUT =       48427.4033

            IN - OUT =          -0.1592              IN - OUT =      -2.4986E-05

 PERCENT DISCREPANCY =          -0.00     PERCENT DISCREPANCY =          -0.00




         TIME SUMMARY AT END OF TIME STEP    6 IN STRESS PERIOD   20
                    SECONDS     MINUTES      HOURS       DAYS        YEARS
                    -----------------------------------------------------------
   TIME STEP LENGTH 9.18555E+06 1.53093E+05  2551.5      106.31     0.29107    
 STRESS PERIOD TIME 3.15576E+07 5.25960E+05  8766.0      365.25      1.0000    
         TOTAL TIME 5.99681E+08 9.99468E+06 1.66578E+05  6940.8      19.003    


end timestep


start timestep kper="21" kstp="1" mode="normal"


 OUTPUT CONTROL FOR STRESS PERIOD 21 IS REPEATED USING SETTINGS FROM A PREVIOUS STRESS PERIOD.


 STRESS PERIOD 21 IS TRANSIENT


 REUSING CSUBS FROM LAST STRESS PERIOD

end timestep


start timestep kper="21" kstp="2" mode="normal"


end timestep


start timestep kper="21" kstp="3" mode="normal"


end timestep


start timestep kper="21" kstp="4" mode="normal"


end timestep


start timestep kper="21" kstp="5" mode="normal"


end timestep


start timestep kper="21" kstp="6" mode="normal"

 UBDSV1 SAVING  CSUB-CGELASTIC  ON UNIT   1022 AT TIME STEP      6, STRESS PERIOD     21
 UBDSV06 SAVING    CSUB-ELASTIC  IN MODEL CSUB_SUB03B      PACKAGE CSUB_SUB03B     CONNECTED TO MODEL CSUB_SUB03B      PACKAGE CSUB             ON UNIT   1022 AT TIME STEP      6, STRESS PERIOD     21
 UBDSV06 SAVING  CSUB-INELASTIC  IN MODEL CSUB_SUB03B      PACKAGE CSUB_SUB03B     CONNECTED TO MODEL CSUB_SUB03B      PACKAGE CSUB             ON UNIT   1022 AT TIME STEP      6, STRESS PERIOD     21
 UBDSV1 SAVING  CSUB-WATERCOMP  ON UNIT   1022 AT TIME STEP      6, STRESS PERIOD     21

 WEL PACKAGE (WEL_0) FLOW RATES   PERIOD     21   STEP        6
 -----------------------------------------------
   NUMBER   CELLID                    RATE      
 -----------------------------------------------
     1      (3,3,6)              -14000.000     
     2      (3,3,7)              -8000.0000     
     3      (3,4,6)              -5000.0000     
     4      (3,4,7)              -3000.0000     
 -----------------------------------------------




 CSUB-COMPACTION WILL BE SAVED ON UNIT 1018 AT END OF TIME STEP    6, STRESS PERIOD   21
1
  HEAD IN LAYER   1 AT END OF TIME STEP   6 IN STRESS PERIOD   21
  ---------------------------------------------------------------------------

                1               2               3               4               5               6               7               8               9              10
 ................................................................................................................................................................
   1      18.8068         18.3760         17.5591         17.0321         16.7584         16.7239         16.9317         17.4015         18.1756         18.5833    
   2      17.6672         17.0550         16.5292         16.1456         15.9263         15.8801         16.0100         16.3133         16.7755         17.3508    
   3      16.1070         15.5106         15.0510         14.7232         14.5255         14.4576         14.5206         14.7157         15.0496         15.5497    
   4      14.0542         13.5349         13.1625         12.9001         12.7311         12.6461         12.6366         12.6893         12.7811         12.8698    
   5      11.1890         11.0783         10.9401         10.8127         10.7138         10.6500         10.6209         10.6198         10.6349         10.6503    
   6      8.86102         8.82472         8.76754         8.70571         8.65161         8.61237         8.58999         8.58199         8.58269         8.58549    
   7      6.75935         6.73505         6.69414         6.64885         6.61141         6.58911         6.58370         6.59147         6.60404         6.61289    
   8      4.82447         4.78089         4.70737         4.62986         4.58006         4.56792         4.59443         4.65169         4.71016         4.74569    
   9      3.12284         3.00583         2.79581         2.55919         2.45723         2.45135         2.54165         2.76675         2.96787         3.08007    
  10      1.93902         1.65396         1.04145         0.00000         0.00000         0.00000         0.00000         1.02876         1.63271         1.91343    
1
  HEAD IN LAYER   2 AT END OF TIME STEP   6 IN STRESS PERIOD   21
  ---------------------------------------------------------------------------

                1               2               3               4               5               6               7               8               9              10
 ................................................................................................................................................................
   1     -4.08140        -4.07699        -4.08323        -4.09668        -4.11444        -4.13437        -4.15532        -4.17756        -4.20273        -4.23364    
   2     -4.14812        -3.27836        -3.62814        -4.15768        -4.68530        -5.08263        -5.06172        -4.72606        -4.33992        -4.38666    
   3     -4.25488        -3.85902        -4.41188        -5.26862        -6.46816        -8.07245        -7.71222        -6.40453        -5.42993        -4.55204    
   4     -4.38709        -4.19526        -4.64968        -5.28671        -6.08138        -6.97210        -6.87797        -6.22808        -5.63391        -4.70466    
   5     -4.53631        -4.43872        -4.65287        -4.95087        -5.26769        -5.52558        -5.58584        -5.49102        -5.31198        -4.83468    
   6     -4.69245        -4.59066        -4.67863        -4.81069        -4.94531        -5.05273        -5.10851        -5.11636        -5.08463        -4.95160    
   7     -4.85350        -4.79672        -4.84278        -4.91084        -4.97799        -5.03137        -5.06374        -5.07604        -5.07470        -5.06475    
   8     -5.01728        -5.11626        -5.18238        -5.24420        -5.29320        -5.32164        -5.32646        -5.30982        -5.27502        -5.17776    
   9     -5.17885        -5.52959        -5.68089        -5.80358        -5.86676        -5.88249        -5.84942        -5.75305        -5.62257        -5.28817    
  10     -5.33069        -5.36519        -5.39551        -5.41993        -5.43540        -5.44195        -5.43955        -5.42816        -5.41076        -5.38908    
1
  HEAD IN LAYER   3 AT END OF TIME STEP   6 IN STRESS PERIOD   21
  ---------------------------------------------------------------------------

                1               2               3               4               5               6               7               8               9              10
 ................................................................................................................................................................
   1     -22.9194        -23.0888        -23.4056        -23.8223        -24.2608        -24.6144        -24.7785        -24.7743        -24.7011        -24.6427    
   2     -22.9578        -23.2172        -23.7297        -24.4648        -25.3367        -26.1144        -26.1959        -25.7945        -25.3859        -25.1515    
   3     -22.6686        -23.0582        -23.8907        -25.2928        -27.5287        -31.1444        -30.2923        -27.5906        -26.1200        -25.4651    
   4     -21.5152        -21.8318        -22.4836        -23.5045        -24.9382        -26.8114        -26.5469        -25.2021        -24.3236        -23.8930    
   5     -19.7562        -19.9318        -20.2715        -20.7437        -21.2792        -21.7342        -21.8251        -21.6415        -21.4246        -21.2921    
   6     -17.9100        -17.9938        -18.1502        -18.3552        -18.5706        -18.7462        -18.8356        -18.8461        -18.8206        -18.7974    
   7     -16.2952        -16.3339        -16.4053        -16.4975        -16.5944        -16.6789        -16.7383        -16.7710        -16.7846        -16.7883    
   8     -15.0477        -15.0664        -15.1009        -15.1455        -15.1937        -15.2384        -15.2747        -15.3003        -15.3157        -15.3226    
   9     -14.2107        -14.2212        -14.2400        -14.2645        -14.2914        -14.3174        -14.3400        -14.3572        -14.3685        -14.3737    
  10     -13.7917        -13.7984        -13.8108        -13.8272        -13.8456        -13.8640        -13.8806        -13.8939        -13.9030        -13.9076    

 HEAD WILL BE SAVED ON UNIT 1023 AT END OF TIME STEP    6, STRESS PERIOD   21


  VOLUME BUDGET FOR ENTIRE MODEL AT END OF TIME STEP    6, STRESS PERIOD  21
  ---------------------------------------------------------------------------------------------------

     CUMULATIVE VOLUME      L**3       RATES FOR THIS TIME STEP      L**3/T          PACKAGE NAME    
     ------------------                 ------------------------                     ----------------

           IN:                                      IN:
           ---                                      ---
              STO-SS =           0.0000                STO-SS =           0.0000     STORAGE                          
      CSUB-CGELASTIC =     1909072.5964        CSUB-CGELASTIC =          72.0613     CSUB                             
        CSUB-ELASTIC =     4551767.5073          CSUB-ELASTIC =          33.0190     CSUB                             
      CSUB-INELASTIC =   165144101.5893        CSUB-INELASTIC =       21054.7759     CSUB                             
      CSUB-WATERCOMP =           0.0000        CSUB-WATERCOMP =           0.0000     CSUB                             
                 WEL =           0.0000                   WEL =           0.0000     WEL_0                            
                RCHA =   167676750.0000                  RCHA =       27000.0000     RCHA_0                           
                 CHD =     3135633.7956                   CHD =         130.4210     CHD_0                            

            TOTAL IN =   342417325.4885              TOTAL IN =       48290.2773

          OUT:                                     OUT:
          ----                                     ----
              STO-SS =           0.0000                STO-SS =           0.0000     STORAGE                          
      CSUB-CGELASTIC =      272965.5610        CSUB-CGELASTIC =           0.0000     CSUB                             
        CSUB-ELASTIC =      967085.3344          CSUB-ELASTIC =           0.0000     CSUB                             
      CSUB-INELASTIC =           0.0000        CSUB-INELASTIC =           0.0000     CSUB                             
      CSUB-WATERCOMP =           0.0000        CSUB-WATERCOMP =           0.0000     CSUB                             
                 WEL =   219150000.0000                   WEL =       30000.0000     WEL_0                            
                RCHA =           0.0000                  RCHA =           0.0000     RCHA_0                           
                 CHD =   122027274.7613                   CHD =       18290.2773     CHD_0                            

           TOTAL OUT =   342417325.6567             TOTAL OUT =       48290.2773

            IN - OUT =          -0.1682              IN - OUT =      -2.4758E-05

 PERCENT DISCREPANCY =          -0.00     PERCENT DISCREPANCY =          -0.00




         TIME SUMMARY AT END OF TIME STEP    6 IN STRESS PERIOD   21
                    SECONDS     MINUTES      HOURS       DAYS        YEARS
                    -----------------------------------------------------------
   TIME STEP LENGTH 9.18555E+06 1.53093E+05  2551.5      106.31     0.29107    
 STRESS PERIOD TIME 3.15576E+07 5.25960E+05  8766.0      365.25      1.0000    
         TOTAL TIME 6.31238E+08 1.05206E+07 1.75344E+05  7306.0      20.003    


end timestep


start timestep kper="22" kstp="1" mode="normal"


 OUTPUT CONTROL FOR STRESS PERIOD 22 IS REPEATED USING SETTINGS FROM A PREVIOUS STRESS PERIOD.


 STRESS PERIOD 22 IS TRANSIENT


 REUSING CSUBS FROM LAST STRESS PERIOD

end timestep


start timestep kper="22" kstp="2" mode="normal"


end timestep


start timestep kper="22" kstp="3" mode="normal"


end timestep


start timestep kper="22" kstp="4" mode="normal"


end timestep


start timestep kper="22" kstp="5" mode="normal"


end timestep


start timestep kper="22" kstp="6" mode="normal"

 UBDSV1 SAVING  CSUB-CGELASTIC  ON UNIT   1022 AT TIME STEP      6, STRESS PERIOD     22
 UBDSV06 SAVING    CSUB-ELASTIC  IN MODEL CSUB_SUB03B      PACKAGE CSUB_SUB03B     CONNECTED TO MODEL CSUB_SUB03B      PACKAGE CSUB             ON UNIT   1022 AT TIME STEP      6, STRESS PERIOD     22
 UBDSV06 SAVING  CSUB-INELASTIC  IN MODEL CSUB_SUB03B      PACKAGE CSUB_SUB03B     CONNECTED TO MODEL CSUB_SUB03B      PACKAGE CSUB             ON UNIT   1022 AT TIME STEP      6, STRESS PERIOD     22
 UBDSV1 SAVING  CSUB-WATERCOMP  ON UNIT   1022 AT TIME STEP      6, STRESS PERIOD     22

 WEL PACKAGE (WEL_0) FLOW RATES   PERIOD     22   STEP        6
 -----------------------------------------------
   NUMBER   CELLID                    RATE      
 -----------------------------------------------
     1      (3,3,6)              -14000.000     
     2      (3,3,7)              -8000.0000     
     3      (3,4,6)              -5000.0000     
     4      (3,4,7)              -3000.0000     
 -----------------------------------------------




 CSUB-COMPACTION WILL BE SAVED ON UNIT 1018 AT END OF TIME STEP    6, STRESS PERIOD   22
1
  HEAD IN LAYER   1 AT END OF TIME STEP   6 IN STRESS PERIOD   22
  ---------------------------------------------------------------------------

                1               2               3               4               5               6               7               8               9              10
 ................................................................................................................................................................
   1      18.7355         18.3047         17.4878         16.9607         16.6870         16.6526         16.8603         17.3301         18.1043         18.5120    
   2      17.5973         16.9851         16.4592         16.0756         15.8563         15.8101         15.9400         16.2433         16.7055         17.2809    
   3      16.0399         15.4435         14.9839         14.6561         14.4584         14.3905         14.4536         14.6486         14.9825         15.4827    
   4      13.9915         13.4722         13.0997         12.8374         12.6684         12.5834         12.5739         12.6265         12.7183         12.8071    
   5      11.1321         11.0213         10.8831         10.7557         10.6568         10.5931         10.5639         10.5628         10.5779         10.5933    
   6      8.81117         8.77491         8.71777         8.65599         8.60191         8.56267         8.54027         8.53222         8.53287         8.53563    
   7      6.71791         6.69372         6.65297         6.60784         6.57049         6.54819         6.54268         6.55029         6.56269         6.57145    
   8      4.79243         4.74917         4.67616         4.59917         4.54966         4.53751         4.56374         4.62047         4.67843         4.71364    
   9      3.10037         2.98427         2.77587         2.54106         2.43985         2.43397         2.52352         2.74680         2.94630         3.05760    
  10      1.92393         1.64109         1.03334         0.00000         0.00000         0.00000         0.00000         1.02066         1.61984         1.89834    
1
  HEAD IN LAYER   2 AT END OF TIME STEP   6 IN STRESS PERIOD   22
  ---------------------------------------------------------------------------

                1               2               3               4               5               6               7               8               9              10
 ................................................................................................................................................................
   1     -4.38408        -4.38031        -4.38704        -4.40082        -4.41876        -4.43872        -4.45954        -4.48150        -4.50623        -4.53654    
   2     -4.44764        -3.59902        -3.95199        -4.48204        -5.00990        -5.40656        -5.38682        -5.05119        -4.66200        -4.68650    
   3     -4.55055        -4.17377        -4.72962        -5.58666        -6.78249        -8.31637        -8.02710        -6.72341        -5.74617        -4.84810    
   4     -4.67832        -4.50056        -4.95722        -5.59470        -6.38960        -7.27963        -7.18668        -6.53685        -5.94057        -4.99629    
   5     -4.82264        -4.73235        -4.94771        -5.24600        -5.56307        -5.82116        -5.88161        -5.78683        -5.60672        -5.12142    
   6     -4.97367        -4.87141        -4.95940        -5.09159        -5.22636        -5.33394        -5.38988        -5.39787        -5.36623        -5.23318    
   7     -5.12961        -5.06445        -5.10929        -5.17728        -5.24449        -5.29799        -5.33053        -5.34308        -5.34305        -5.34117    
   8     -5.28855        -5.37183        -5.43549        -5.49695        -5.54587        -5.57440        -5.57946        -5.56331        -5.53104        -5.44928    
   9     -5.44577        -5.77557        -5.92325        -6.04494        -6.10779        -6.12358        -6.09096        -5.99568        -5.86888        -5.55527    
  10     -5.59394        -5.62769        -5.65742        -5.68145        -5.69673        -5.70329        -5.70111        -5.69013        -5.67334        -5.65243    
1
  HEAD IN LAYER   3 AT END OF TIME STEP   6 IN STRESS PERIOD   22
  ---------------------------------------------------------------------------

                1               2               3               4               5               6               7               8               9              10
 ................................................................................................................................................................
   1     -23.5036        -23.6732        -23.9905        -24.4077        -24.8468        -25.2010        -25.3655        -25.3616        -25.2887        -25.2304    
   2     -23.5364        -23.7962        -24.3091        -25.0449        -25.9174        -26.6957        -26.7776        -26.3766        -25.9681        -25.7337    
   3     -23.2362        -23.6260        -24.4591        -25.8618        -28.0985        -31.7148        -30.8632        -28.1617        -26.6912        -26.0363    
   4     -22.0667        -22.3835        -23.0358        -24.0573        -25.4917        -27.3655        -27.1014        -25.7568        -24.8784        -24.4478    
   5     -20.2882        -20.4639        -20.8040        -21.2767        -21.8126        -22.2681        -22.3594        -22.1760        -21.9593        -21.8268    
   6     -18.4212        -18.5051        -18.6618        -18.8671        -19.0827        -19.2588        -19.3484        -19.3591        -19.3338        -19.3106    
   7     -16.7865        -16.8253        -16.8968        -16.9892        -17.0864        -17.1711        -17.2307        -17.2636        -17.2773        -17.2811    
   8     -15.5221        -15.5409        -15.5754        -15.6202        -15.6685        -15.7135        -15.7499        -15.7756        -15.7912        -15.7982    
   9     -14.6730        -14.6835        -14.7024        -14.7269        -14.7540        -14.7801        -14.8028        -14.8201        -14.8315        -14.8368    
  10     -14.2477        -14.2544        -14.2668        -14.2833        -14.3019        -14.3204        -14.3370        -14.3504        -14.3597        -14.3643    

 HEAD WILL BE SAVED ON UNIT 1023 AT END OF TIME STEP    6, STRESS PERIOD   22


  VOLUME BUDGET FOR ENTIRE MODEL AT END OF TIME STEP    6, STRESS PERIOD  22
  ---------------------------------------------------------------------------------------------------

     CUMULATIVE VOLUME      L**3       RATES FOR THIS TIME STEP      L**3/T          PACKAGE NAME    
     ------------------                 ------------------------                     ----------------

           IN:                                      IN:
           ---                                      ---
              STO-SS =           0.0000                STO-SS =           0.0000     STORAGE                          
      CSUB-CGELASTIC =     1935281.0521        CSUB-CGELASTIC =          71.5286     CSUB                             
        CSUB-ELASTIC =     4563733.4132          CSUB-ELASTIC =          32.3938     CSUB                             
      CSUB-INELASTIC =   172803384.9893        CSUB-INELASTIC =       20913.7834     CSUB                             
      CSUB-WATERCOMP =           0.0000        CSUB-WATERCOMP =           0.0000     CSUB                             
                 WEL =           0.0000                   WEL =           0.0000     WEL_0                            
                RCHA =   177538500.0000                  RCHA =       27000.0000     RCHA_0                           
                 CHD =     3184643.9709                   CHD =         136.6954     CHD_0                            

            TOTAL IN =   360025543.4254              TOTAL IN =       48154.4012

          OUT:                                     OUT:
          ----                                     ----
              STO-SS =           0.0000                STO-SS =           0.0000     STORAGE                          
      CSUB-CGELASTIC =      272965.5610        CSUB-CGELASTIC =           0.0000     CSUB                             
        CSUB-ELASTIC =      967085.3344          CSUB-ELASTIC =           0.0000     CSUB                             
      CSUB-INELASTIC =           0.0000        CSUB-INELASTIC =           0.0000     CSUB                             
      CSUB-WATERCOMP =           0.0000        CSUB-WATERCOMP =           0.0000     CSUB                             
                 WEL =   230107500.0000                   WEL =       30000.0000     WEL_0                            
                RCHA =           0.0000                  RCHA =           0.0000     RCHA_0                           
                 CHD =   128677992.7071                   CHD =       18154.4013     CHD_0                            

           TOTAL OUT =   360025543.6025             TOTAL OUT =       48154.4013

            IN - OUT =          -0.1771              IN - OUT =      -2.3857E-05

 PERCENT DISCREPANCY =          -0.00     PERCENT DISCREPANCY =          -0.00




         TIME SUMMARY AT END OF TIME STEP    6 IN STRESS PERIOD   22
                    SECONDS     MINUTES      HOURS       DAYS        YEARS
                    -----------------------------------------------------------
   TIME STEP LENGTH 9.18555E+06 1.53093E+05  2551.5      106.31     0.29107    
 STRESS PERIOD TIME 3.15576E+07 5.25960E+05  8766.0      365.25      1.0000    
         TOTAL TIME 6.62796E+08 1.10466E+07 1.84110E+05  7671.2      21.003    


end timestep


start timestep kper="23" kstp="1" mode="normal"


 OUTPUT CONTROL FOR STRESS PERIOD 23 IS REPEATED USING SETTINGS FROM A PREVIOUS STRESS PERIOD.


 STRESS PERIOD 23 IS TRANSIENT


 REUSING CSUBS FROM LAST STRESS PERIOD

end timestep


start timestep kper="23" kstp="2" mode="normal"


end timestep


start timestep kper="23" kstp="3" mode="normal"


end timestep


start timestep kper="23" kstp="4" mode="normal"


end timestep


start timestep kper="23" kstp="5" mode="normal"


end timestep


start timestep kper="23" kstp="6" mode="normal"

 UBDSV1 SAVING  CSUB-CGELASTIC  ON UNIT   1022 AT TIME STEP      6, STRESS PERIOD     23
 UBDSV06 SAVING    CSUB-ELASTIC  IN MODEL CSUB_SUB03B      PACKAGE CSUB_SUB03B     CONNECTED TO MODEL CSUB_SUB03B      PACKAGE CSUB             ON UNIT   1022 AT TIME STEP      6, STRESS PERIOD     23
 UBDSV06 SAVING  CSUB-INELASTIC  IN MODEL CSUB_SUB03B      PACKAGE CSUB_SUB03B     CONNECTED TO MODEL CSUB_SUB03B      PACKAGE CSUB             ON UNIT   1022 AT TIME STEP      6, STRESS PERIOD     23
 UBDSV1 SAVING  CSUB-WATERCOMP  ON UNIT   1022 AT TIME STEP      6, STRESS PERIOD     23

 WEL PACKAGE (WEL_0) FLOW RATES   PERIOD     23   STEP        6
 -----------------------------------------------
   NUMBER   CELLID                    RATE      
 -----------------------------------------------
     1      (3,3,6)              -14000.000     
     2      (3,3,7)              -8000.0000     
     3      (3,4,6)              -5000.0000     
     4      (3,4,7)              -3000.0000     
 -----------------------------------------------




 CSUB-COMPACTION WILL BE SAVED ON UNIT 1018 AT END OF TIME STEP    6, STRESS PERIOD   23
1
  HEAD IN LAYER   1 AT END OF TIME STEP   6 IN STRESS PERIOD   23
  ---------------------------------------------------------------------------

                1               2               3               4               5               6               7               8               9              10
 ................................................................................................................................................................
   1      18.6662         18.2354         17.4185         16.8915         16.6178         16.5834         16.7912         17.2610         18.0351         18.4428    
   2      17.5294         16.9172         16.3913         16.0077         15.7885         15.7424         15.8722         16.1756         16.6378         17.2131    
   3      15.9748         15.3784         14.9188         14.5911         14.3935         14.3258         14.3888         14.5837         14.9175         15.4177    
   4      13.9305         13.4112         13.0388         12.7765         12.6075         12.5225         12.5130         12.5657         12.6574         12.7462    
   5      11.0766         10.9659         10.8277         10.7003         10.6015         10.5377         10.5086         10.5074         10.5225         10.5380    
   6      8.76262         8.72638         8.66930         8.60758         8.55353         8.51430         8.49187         8.48377         8.48437         8.48711    
   7      6.67749         6.65339         6.61281         6.56784         6.53058         6.50829         6.50268         6.51014         6.52238         6.53103    
   8      4.76112         4.71817         4.64567         4.56918         4.51996         4.50782         4.53376         4.58999         4.64744         4.68235    
   9      3.07838         2.96317         2.75636         2.52332         2.42285         2.41697         2.50578         2.72729         2.92521         3.03561    
  10      1.90915         1.62848         1.02540         0.00000         0.00000         0.00000         0.00000         1.01272         1.60723         1.88356    
1
  HEAD IN LAYER   2 AT END OF TIME STEP   6 IN STRESS PERIOD   23
  ---------------------------------------------------------------------------

                1               2               3               4               5               6               7               8               9              10
 ................................................................................................................................................................
   1     -4.68301        -4.67983        -4.68700        -4.70109        -4.71919        -4.73917        -4.75987        -4.78157        -4.80589        -4.83563    
   2     -4.74364        -3.91470        -4.27059        -4.80100        -5.32853        -5.72128        -5.70366        -5.37044        -4.97877        -4.98275    
   3     -4.84299        -4.48395        -5.04244        -5.89870        -7.07745        -8.36083        -8.18107        -7.02724        -6.05690        -5.14083    
   4     -4.96663        -4.80201        -5.26073        -5.89850        -6.69306        -7.57912        -7.48832        -6.84098        -6.24306        -5.28493    
   5     -5.10642        -5.02305        -5.23954        -5.53807        -5.85531        -6.11351        -6.17414        -6.07944        -5.89832        -5.40551    
   6     -5.25269        -5.15023        -5.23825        -5.37053        -5.50542        -5.61314        -5.66921        -5.67732        -5.64573        -5.51250    
   7     -5.40389        -5.33117        -5.37491        -5.44282        -5.51007        -5.56367        -5.59635        -5.60914        -5.61029        -5.61570    
   8     -5.55832        -5.62721        -5.68859        -5.74970        -5.79853        -5.82713        -5.83242        -5.81673        -5.78680        -5.71925    
   9     -5.71149        -6.02191        -6.16620        -6.28693        -6.34944        -6.36528        -6.33310        -6.23887        -6.11550        -5.82113    
  10     -5.85622        -5.88925        -5.91845        -5.94210        -5.95720        -5.96376        -5.96179        -5.95120        -5.93497        -5.91478    
1
  HEAD IN LAYER   3 AT END OF TIME STEP   6 IN STRESS PERIOD   23
  ---------------------------------------------------------------------------

                1               2               3               4               5               6               7               8               9              10
 ................................................................................................................................................................
   1     -24.0790        -24.2488        -24.5664        -24.9841        -25.4237        -25.7783        -25.9432        -25.9396        -25.8669        -25.8086    
   2     -24.1067        -24.3666        -24.8799        -25.6162        -26.4892        -27.2679        -27.3503        -26.9496        -26.5413        -26.3069    
   3     -23.7962        -24.1863        -25.0197        -26.4229        -28.6601        -32.2766        -31.4255        -28.7245        -27.2541        -26.5993    
   4     -22.6121        -22.9291        -23.5817        -24.6037        -26.0386        -27.9129        -27.6491        -26.3047        -25.4264        -24.9958    
   5     -20.8158        -20.9917        -21.3320        -21.8051        -22.3414        -22.7973        -22.8889        -22.7056        -22.4890        -22.3566    
   6     -18.9299        -19.0138        -19.1707        -19.3763        -19.5922        -19.7685        -19.8584        -19.8692        -19.8441        -19.8210    
   7     -17.2771        -17.3159        -17.3875        -17.4801        -17.5775        -17.6624        -17.7222        -17.7552        -17.7690        -17.7729    
   8     -15.9973        -16.0161        -16.0507        -16.0956        -16.1440        -16.1891        -16.2257        -16.2516        -16.2672        -16.2743    
   9     -15.1371        -15.1476        -15.1665        -15.1911        -15.2182        -15.2445        -15.2673        -15.2848        -15.2962        -15.3016    
  10     -14.7060        -14.7128        -14.7252        -14.7418        -14.7604        -14.7790        -14.7958        -14.8092        -14.8185        -14.8232    

 HEAD WILL BE SAVED ON UNIT 1023 AT END OF TIME STEP    6, STRESS PERIOD   23


  VOLUME BUDGET FOR ENTIRE MODEL AT END OF TIME STEP    6, STRESS PERIOD  23
  ---------------------------------------------------------------------------------------------------

     CUMULATIVE VOLUME      L**3       RATES FOR THIS TIME STEP      L**3/T          PACKAGE NAME    
     ------------------                 ------------------------                     ----------------

           IN:                                      IN:
           ---                                      ---
              STO-SS =           0.0000                STO-SS =           0.0000     STORAGE                          
      CSUB-CGELASTIC =     1961282.5135        CSUB-CGELASTIC =          70.9602     CSUB                             
        CSUB-ELASTIC =     4575395.5995          CSUB-ELASTIC =          31.6180     CSUB                             
      CSUB-INELASTIC =   180411876.1003        CSUB-INELASTIC =       20775.8853     CSUB                             
      CSUB-WATERCOMP =           0.0000        CSUB-WATERCOMP =           0.0000     CSUB                             
                 WEL =           0.0000                   WEL =           0.0000     WEL_0                            
                RCHA =   187400250.0000                  RCHA =       27000.0000     RCHA_0                           
                 CHD =     3235941.5219                   CHD =         142.9491     CHD_0                            

            TOTAL IN =   377584745.7351              TOTAL IN =       48021.4126

          OUT:                                     OUT:
          ----                                     ----
              STO-SS =           0.0000                STO-SS =           0.0000     STORAGE                          
      CSUB-CGELASTIC =      272965.5610        CSUB-CGELASTIC =           0.0000     CSUB                             
        CSUB-ELASTIC =      967085.3344          CSUB-ELASTIC =           0.0000     CSUB                             
      CSUB-INELASTIC =           0.0000        CSUB-INELASTIC =           0.0000     CSUB                             
      CSUB-WATERCOMP =           0.0000        CSUB-WATERCOMP =           0.0000     CSUB                             
                 WEL =   241065000.0000                   WEL =       30000.0000     WEL_0                            
                RCHA =           0.0000                  RCHA =           0.0000     RCHA_0                           
                 CHD =   135279695.0256                   CHD =       18021.4126     CHD_0                            

           TOTAL OUT =   377584745.9210             TOTAL OUT =       48021.4126

            IN - OUT =          -0.1859              IN - OUT =      -2.4920E-05

 PERCENT DISCREPANCY =          -0.00     PERCENT DISCREPANCY =          -0.00




         TIME SUMMARY AT END OF TIME STEP    6 IN STRESS PERIOD   23
                    SECONDS     MINUTES      HOURS       DAYS        YEARS
                    -----------------------------------------------------------
   TIME STEP LENGTH 9.18555E+06 1.53093E+05  2551.5      106.31     0.29107    
 STRESS PERIOD TIME 3.15576E+07 5.25960E+05  8766.0      365.25      1.0000    
         TOTAL TIME 6.94354E+08 1.15726E+07 1.92876E+05  8036.5      22.003    


end timestep


start timestep kper="24" kstp="1" mode="normal"


 OUTPUT CONTROL FOR STRESS PERIOD 24 IS REPEATED USING SETTINGS FROM A PREVIOUS STRESS PERIOD.


 STRESS PERIOD 24 IS TRANSIENT


 REUSING CSUBS FROM LAST STRESS PERIOD

end timestep


start timestep kper="24" kstp="2" mode="normal"


end timestep


start timestep kper="24" kstp="3" mode="normal"


end timestep


start timestep kper="24" kstp="4" mode="normal"


end timestep


start timestep kper="24" kstp="5" mode="normal"


end timestep


start timestep kper="24" kstp="6" mode="normal"

 UBDSV1 SAVING  CSUB-CGELASTIC  ON UNIT   1022 AT TIME STEP      6, STRESS PERIOD     24
 UBDSV06 SAVING    CSUB-ELASTIC  IN MODEL CSUB_SUB03B      PACKAGE CSUB_SUB03B     CONNECTED TO MODEL CSUB_SUB03B      PACKAGE CSUB             ON UNIT   1022 AT TIME STEP      6, STRESS PERIOD     24
 UBDSV06 SAVING  CSUB-INELASTIC  IN MODEL CSUB_SUB03B      PACKAGE CSUB_SUB03B     CONNECTED TO MODEL CSUB_SUB03B      PACKAGE CSUB             ON UNIT   1022 AT TIME STEP      6, STRESS PERIOD     24
 UBDSV1 SAVING  CSUB-WATERCOMP  ON UNIT   1022 AT TIME STEP      6, STRESS PERIOD     24

 WEL PACKAGE (WEL_0) FLOW RATES   PERIOD     24   STEP        6
 -----------------------------------------------
   NUMBER   CELLID                    RATE      
 -----------------------------------------------
     1      (3,3,6)              -14000.000     
     2      (3,3,7)              -8000.0000     
     3      (3,4,6)              -5000.0000     
     4      (3,4,7)              -3000.0000     
 -----------------------------------------------




 CSUB-COMPACTION WILL BE SAVED ON UNIT 1018 AT END OF TIME STEP    6, STRESS PERIOD   24
1
  HEAD IN LAYER   1 AT END OF TIME STEP   6 IN STRESS PERIOD   24
  ---------------------------------------------------------------------------

                1               2               3               4               5               6               7               8               9              10
 ................................................................................................................................................................
   1      18.5990         18.1682         17.3513         16.8244         16.5507         16.5163         16.7241         17.1939         17.9680         18.3757    
   2      17.4635         16.8513         16.3255         15.9419         15.7228         15.6767         15.8066         16.1099         16.5721         17.1474    
   3      15.9116         15.3152         14.8557         14.5281         14.3306         14.2632         14.3262         14.5209         14.8546         15.3548    
   4      13.8714         13.3521         12.9797         12.7175         12.5487         12.4639         12.4544         12.5069         12.5986         12.6873    
   5      11.0228         10.9121         10.7739         10.6466         10.5478         10.4841         10.4549         10.4538         10.4688         10.4843    
   6      8.71538         8.67919         8.62216         8.56050         8.50651         8.46729         8.44484         8.43670         8.43726         8.43996    
   7      6.63810         6.61411         6.57369         6.52888         6.49173         6.46944         6.46375         6.47106         6.48314         6.49170    
   8      4.73058         4.68793         4.61592         4.53994         4.49100         4.47886         4.50452         4.56026         4.61722         4.65183    
   9      3.05690         2.94256         2.73730         2.50600         2.40625         2.40037         2.48846         2.70824         2.90461         3.01414    
  10      1.89469         1.61614         1.01763         0.00000         0.00000         0.00000         0.00000         1.00495         1.59490         1.86910    
1
  HEAD IN LAYER   2 AT END OF TIME STEP   6 IN STRESS PERIOD   24
  ---------------------------------------------------------------------------

                1               2               3               4               5               6               7               8               9              10
 ................................................................................................................................................................
   1     -4.97824        -4.97561        -4.98319        -4.99755        -5.01581        -5.03580        -5.05639        -5.07783        -5.10177        -5.13098    
   2     -5.03616        -4.22556        -4.58413        -5.11482        -5.64201        -6.03125        -6.01327        -5.68405        -5.29038        -5.27545    
   3     -5.13221        -4.78968        -5.35058        -6.20608        -7.37007        -8.44443        -8.23446        -7.31804        -6.36222        -5.43027    
   4     -5.25203        -5.09967        -5.56021        -6.19750        -6.98125        -7.70019        -7.64890        -7.13210        -6.54090        -5.57056    
   5     -5.38761        -5.31081        -5.52831        -5.82698        -6.14400        -6.39969        -6.46107        -6.36848        -6.18669        -5.68693    
   6     -5.52947        -5.42700        -5.51506        -5.64741        -5.78238        -5.89016        -5.94634        -5.95458        -5.92303        -5.78949    
   7     -5.67625        -5.59674        -5.63946        -5.70728        -5.77456        -5.82824        -5.86105        -5.87404        -5.87626        -5.88825    
   8     -5.82648        -5.88219        -5.94147        -6.00223        -6.05096        -6.07963        -6.08512        -6.06987        -6.04209        -5.98756    
   9     -5.97586        -6.26839        -6.40949        -6.52929        -6.59147        -6.60736        -6.57559        -6.48237        -6.36221        -6.08561    
  10     -6.11738        -6.14975        -6.17843        -6.20173        -6.21665        -6.22323        -6.22144        -6.21123        -6.19552        -6.17601    
1
  HEAD IN LAYER   3 AT END OF TIME STEP   6 IN STRESS PERIOD   24
  ---------------------------------------------------------------------------

                1               2               3               4               5               6               7               8               9              10
 ................................................................................................................................................................
   1     -24.6459        -24.8158        -25.1337        -25.5517        -25.9917        -26.3467        -26.5119        -26.5086        -26.4360        -26.3778    
   2     -24.6688        -24.9289        -25.4425        -26.1791        -27.0526        -27.8316        -27.9143        -27.5138        -27.1056        -26.8714    
   3     -24.3489        -24.7392        -25.5729        -26.9764        -29.2138        -32.8305        -31.9796        -29.2791        -27.8090        -27.1542    
   4     -23.1514        -23.4686        -24.1215        -25.1438        -26.5789        -28.4533        -28.1898        -26.8458        -25.9678        -25.5372    
   5     -21.3390        -21.5150        -21.8556        -22.3289        -22.8655        -23.3216        -23.4134        -23.2304        -23.0139        -22.8816    
   6     -19.4358        -19.5199        -19.6769        -19.8827        -20.0988        -20.2753        -20.3654        -20.3764        -20.3513        -20.3283    
   7     -17.7666        -17.8054        -17.8772        -17.9699        -18.0674        -18.1525        -18.2124        -18.2456        -18.2595        -18.2635    
   8     -16.4729        -16.4917        -16.5263        -16.5713        -16.6198        -16.6650        -16.7017        -16.7277        -16.7434        -16.7506    
   9     -15.6025        -15.6130        -15.6319        -15.6566        -15.6838        -15.7102        -15.7330        -15.7506        -15.7621        -15.7676    
  10     -15.1662        -15.1729        -15.1854        -15.2020        -15.2207        -15.2394        -15.2562        -15.2698        -15.2791        -15.2839    

 HEAD WILL BE SAVED ON UNIT 1023 AT END OF TIME STEP    6, STRESS PERIOD   24


  VOLUME BUDGET FOR ENTIRE MODEL AT END OF TIME STEP    6, STRESS PERIOD  24
  ---------------------------------------------------------------------------------------------------

     CUMULATIVE VOLUME      L**3       RATES FOR THIS TIME STEP      L**3/T          PACKAGE NAME    
     ------------------                 ------------------------                     ----------------

           IN:                                      IN:
           ---                                      ---
              STO-SS =           0.0000                STO-SS =           0.0000     STORAGE                          
      CSUB-CGELASTIC =     1987073.3220        CSUB-CGELASTIC =          70.3665     CSUB                             
        CSUB-ELASTIC =     4586734.5810          CSUB-ELASTIC =          30.5962     CSUB                             
      CSUB-INELASTIC =   187970669.4834        CSUB-INELASTIC =       20641.2941     CSUB                             
      CSUB-WATERCOMP =           0.0000        CSUB-WATERCOMP =           0.0000     CSUB                             
                 WEL =           0.0000                   WEL =           0.0000     WEL_0                            
                RCHA =   197262000.0000                  RCHA =       27000.0000     RCHA_0                           
                 CHD =     3289518.0389                   CHD =         149.1783     CHD_0                            

            TOTAL IN =   395095995.4253              TOTAL IN =       47891.4352

          OUT:                                     OUT:
          ----                                     ----
              STO-SS =           0.0000                STO-SS =           0.0000     STORAGE                          
      CSUB-CGELASTIC =      272965.5610        CSUB-CGELASTIC =           0.0000     CSUB                             
        CSUB-ELASTIC =      967085.3344          CSUB-ELASTIC =           0.0000     CSUB                             
      CSUB-INELASTIC =           0.0000        CSUB-INELASTIC =           0.0000     CSUB                             
      CSUB-WATERCOMP =           0.0000        CSUB-WATERCOMP =           0.0000     CSUB                             
                 WEL =   252022500.0000                   WEL =       30000.0000     WEL_0                            
                RCHA =           0.0000                  RCHA =           0.0000     RCHA_0                           
                 CHD =   141833444.7245                   CHD =       17891.4352     CHD_0                            

           TOTAL OUT =   395095995.6199             TOTAL OUT =       47891.4352

            IN - OUT =          -0.1946              IN - OUT =      -2.3511E-05

 PERCENT DISCREPANCY =          -0.00     PERCENT DISCREPANCY =          -0.00




         TIME SUMMARY AT END OF TIME STEP    6 IN STRESS PERIOD   24
                    SECONDS     MINUTES      HOURS       DAYS        YEARS
                    -----------------------------------------------------------
   TIME STEP LENGTH 9.18555E+06 1.53093E+05  2551.5      106.31     0.29107    
 STRESS PERIOD TIME 3.15576E+07 5.25960E+05  8766.0      365.25      1.0000    
         TOTAL TIME 7.25911E+08 1.20985E+07 2.01642E+05  8401.8      23.003    


end timestep


start timestep kper="25" kstp="1" mode="normal"


 OUTPUT CONTROL FOR STRESS PERIOD 25 IS REPEATED USING SETTINGS FROM A PREVIOUS STRESS PERIOD.


 STRESS PERIOD 25 IS TRANSIENT


 REUSING CSUBS FROM LAST STRESS PERIOD

end timestep


start timestep kper="25" kstp="2" mode="normal"


end timestep


start timestep kper="25" kstp="3" mode="normal"


end timestep


start timestep kper="25" kstp="4" mode="normal"


end timestep


start timestep kper="25" kstp="5" mode="normal"


end timestep


start timestep kper="25" kstp="6" mode="normal"

 UBDSV1 SAVING  CSUB-CGELASTIC  ON UNIT   1022 AT TIME STEP      6, STRESS PERIOD     25
 UBDSV06 SAVING    CSUB-ELASTIC  IN MODEL CSUB_SUB03B      PACKAGE CSUB_SUB03B     CONNECTED TO MODEL CSUB_SUB03B      PACKAGE CSUB             ON UNIT   1022 AT TIME STEP      6, STRESS PERIOD     25
 UBDSV06 SAVING  CSUB-INELASTIC  IN MODEL CSUB_SUB03B      PACKAGE CSUB_SUB03B     CONNECTED TO MODEL CSUB_SUB03B      PACKAGE CSUB             ON UNIT   1022 AT TIME STEP      6, STRESS PERIOD     25
 UBDSV1 SAVING  CSUB-WATERCOMP  ON UNIT   1022 AT TIME STEP      6, STRESS PERIOD     25

 WEL PACKAGE (WEL_0) FLOW RATES   PERIOD     25   STEP        6
 -----------------------------------------------
   NUMBER   CELLID                    RATE      
 -----------------------------------------------
     1      (3,3,6)              -14000.000     
     2      (3,3,7)              -8000.0000     
     3      (3,4,6)              -5000.0000     
     4      (3,4,7)              -3000.0000     
 -----------------------------------------------




 CSUB-COMPACTION WILL BE SAVED ON UNIT 1018 AT END OF TIME STEP    6, STRESS PERIOD   25
1
  HEAD IN LAYER   1 AT END OF TIME STEP   6 IN STRESS PERIOD   25
  ---------------------------------------------------------------------------

                1               2               3               4               5               6               7               8               9              10
 ................................................................................................................................................................
   1      18.5330         18.1022         17.2853         16.7584         16.4847         16.4504         16.6582         17.1280         17.9022         18.3099    
   2      17.3988         16.7866         16.2608         15.8773         15.6582         15.6122         15.7421         16.0454         16.5076         17.0829    
   3      15.8496         15.2532         14.7937         14.4662         14.2689         14.2017         14.2648         14.4593         14.7929         15.2930    
   4      13.8133         13.2940         12.9217         12.6596         12.4909         12.4064         12.3969         12.4492         12.5408         12.6295    
   5      10.9699         10.8592         10.7211         10.5938         10.4951         10.4315         10.4023         10.4011         10.4161         10.4316    
   6      8.66895         8.63279         8.57583         8.51424         8.46030         8.42111         8.39865         8.39046         8.39097         8.39364    
   7      6.59936         6.57547         6.53520         6.49056         6.45351         6.43123         6.42546         6.43262         6.44456         6.45301    
   8      4.70051         4.65816         4.58663         4.51115         4.46249         4.45036         4.47575         4.53099         4.58748         4.62179    
   9      3.03572         2.92225         2.71851         2.48893         2.38990         2.38402         2.47140         2.68947         2.88431         2.99298    
  10      1.88043         1.60398         1.00997         0.00000         0.00000         0.00000         0.00000        0.997296         1.58275         1.85485    
1
  HEAD IN LAYER   2 AT END OF TIME STEP   6 IN STRESS PERIOD   25
  ---------------------------------------------------------------------------

                1               2               3               4               5               6               7               8               9              10
 ................................................................................................................................................................
   1     -5.27014        -5.26801        -5.27598        -5.29060        -5.30899        -5.32899        -5.34947        -5.37067        -5.39425        -5.42297    
   2     -5.32555        -4.53208        -4.89312        -5.42405        -5.95093        -6.33720        -6.31890        -5.99302        -5.59745        -5.56496    
   3     -5.41852        -5.09141        -5.65453        -6.50934        -7.66080        -8.56002        -8.32495        -7.60710        -6.66345        -5.71672    
   4     -5.53478        -5.39388        -5.85603        -6.49234        -7.26019        -7.75578        -7.69774        -7.41072        -6.83440        -5.85346    
   5     -5.66643        -5.59585        -5.81428        -6.11301        -6.42952        -6.68133        -6.74269        -6.65418        -6.47211        -5.96591    
   6     -5.80417        -5.70187        -5.78997        -5.92235        -6.05736        -6.16514        -6.22141        -6.22980        -6.19828        -6.06434    
   7     -5.94682        -5.86118        -5.90297        -5.97070        -6.03798        -6.09172        -6.12463        -6.13782        -6.14101        -6.15896    
   8     -6.09312        -6.13672        -6.19403        -6.25446        -6.30309        -6.33180        -6.33749        -6.32265        -6.29686        -6.25431    
   9     -6.23895        -6.51487        -6.65299        -6.77186        -6.83371        -6.84964        -6.81827        -6.72603        -6.60889        -6.34878    
  10     -6.37744        -6.40919        -6.43739        -6.46035        -6.47511        -6.48169        -6.48008        -6.47021        -6.45500        -6.43612    
1
  HEAD IN LAYER   3 AT END OF TIME STEP   6 IN STRESS PERIOD   25
  ---------------------------------------------------------------------------

                1               2               3               4               5               6               7               8               9              10
 ................................................................................................................................................................
   1     -25.2046        -25.3747        -25.6928        -26.1111        -26.5513        -26.9066        -27.0721        -27.0690        -26.9965        -26.9384    
   2     -25.2231        -25.4834        -25.9972        -26.7341        -27.6078        -28.3871        -28.4700        -28.0697        -27.6617        -27.4275    
   3     -24.8946        -25.2850        -26.1189        -27.5227        -29.7602        -33.3768        -32.5262        -29.8261        -28.3563        -27.7016    
   4     -23.6848        -24.0021        -24.6552        -25.6776        -27.1128        -28.9871        -28.7238        -27.3803        -26.5026        -26.0721    
   5     -21.8578        -22.0339        -22.3745        -22.8481        -23.3848        -23.8411        -23.9331        -23.7502        -23.5339        -23.4016    
   6     -19.9390        -20.0231        -20.1802        -20.3861        -20.6024        -20.7791        -20.8693        -20.8805        -20.8555        -20.8325    
   7     -18.2548        -18.2936        -18.3654        -18.4582        -18.5559        -18.6411        -18.7011        -18.7344        -18.7484        -18.7525    
   8     -16.9483        -16.9671        -17.0018        -17.0468        -17.0954        -17.1407        -17.1775        -17.2036        -17.2194        -17.2266    
   9     -16.0688        -16.0792        -16.0981        -16.1229        -16.1501        -16.1766        -16.1995        -16.2172        -16.2288        -16.2343    
  10     -15.6276        -15.6344        -15.6469        -15.6635        -15.6823        -15.7010        -15.7179        -15.7316        -15.7410        -15.7457    

 HEAD WILL BE SAVED ON UNIT 1023 AT END OF TIME STEP    6, STRESS PERIOD   25


  VOLUME BUDGET FOR ENTIRE MODEL AT END OF TIME STEP    6, STRESS PERIOD  25
  ---------------------------------------------------------------------------------------------------

     CUMULATIVE VOLUME      L**3       RATES FOR THIS TIME STEP      L**3/T          PACKAGE NAME    
     ------------------                 ------------------------                     ----------------

           IN:                                      IN:
           ---                                      ---
              STO-SS =           0.0000                STO-SS =           0.0000     STORAGE                          
      CSUB-CGELASTIC =     2012665.3075        CSUB-CGELASTIC =          69.8727     CSUB                             
        CSUB-ELASTIC =     4597867.9750          CSUB-ELASTIC =          30.4240     CSUB                             
      CSUB-INELASTIC =   195480646.3812        CSUB-INELASTIC =       20507.6470     CSUB                             
      CSUB-WATERCOMP =           0.0000        CSUB-WATERCOMP =           0.0000     CSUB                             
                 WEL =           0.0000                   WEL =           0.0000     WEL_0                            
                RCHA =   207123750.0000                  RCHA =       27000.0000     RCHA_0                           
                 CHD =     3345364.2351                   CHD =         155.3834     CHD_0                            

            TOTAL IN =   412560293.8987              TOTAL IN =       47763.3270

          OUT:                                     OUT:
          ----                                     ----
              STO-SS =           0.0000                STO-SS =           0.0000     STORAGE                          
      CSUB-CGELASTIC =      272965.5610        CSUB-CGELASTIC =           0.0000     CSUB                             
        CSUB-ELASTIC =      967085.3344          CSUB-ELASTIC =           0.0000     CSUB                             
      CSUB-INELASTIC =           0.0000        CSUB-INELASTIC =           0.0000     CSUB                             
      CSUB-WATERCOMP =           0.0000        CSUB-WATERCOMP =           0.0000     CSUB                             
                 WEL =   262980000.0000                   WEL =       30000.0000     WEL_0                            
                RCHA =           0.0000                  RCHA =           0.0000     RCHA_0                           
                 CHD =   148340243.2069                   CHD =       17763.3270     CHD_0                            

           TOTAL OUT =   412560294.1023             TOTAL OUT =       47763.3270

            IN - OUT =          -0.2036              IN - OUT =      -2.5675E-05

 PERCENT DISCREPANCY =          -0.00     PERCENT DISCREPANCY =          -0.00




         TIME SUMMARY AT END OF TIME STEP    6 IN STRESS PERIOD   25
                    SECONDS     MINUTES      HOURS       DAYS        YEARS
                    -----------------------------------------------------------
   TIME STEP LENGTH 9.18555E+06 1.53093E+05  2551.5      106.31     0.29107    
 STRESS PERIOD TIME 3.15576E+07 5.25960E+05  8766.0      365.25      1.0000    
         TOTAL TIME 7.57469E+08 1.26245E+07 2.10408E+05  8767.0      24.003    


end timestep


start timestep kper="26" kstp="1" mode="normal"


 OUTPUT CONTROL FOR STRESS PERIOD 26 IS REPEATED USING SETTINGS FROM A PREVIOUS STRESS PERIOD.


 STRESS PERIOD 26 IS TRANSIENT


 REUSING CSUBS FROM LAST STRESS PERIOD

end timestep


start timestep kper="26" kstp="2" mode="normal"


end timestep


start timestep kper="26" kstp="3" mode="normal"


end timestep


start timestep kper="26" kstp="4" mode="normal"


end timestep


start timestep kper="26" kstp="5" mode="normal"


end timestep


start timestep kper="26" kstp="6" mode="normal"

 UBDSV1 SAVING  CSUB-CGELASTIC  ON UNIT   1022 AT TIME STEP      6, STRESS PERIOD     26
 UBDSV06 SAVING    CSUB-ELASTIC  IN MODEL CSUB_SUB03B      PACKAGE CSUB_SUB03B     CONNECTED TO MODEL CSUB_SUB03B      PACKAGE CSUB             ON UNIT   1022 AT TIME STEP      6, STRESS PERIOD     26
 UBDSV06 SAVING  CSUB-INELASTIC  IN MODEL CSUB_SUB03B      PACKAGE CSUB_SUB03B     CONNECTED TO MODEL CSUB_SUB03B      PACKAGE CSUB             ON UNIT   1022 AT TIME STEP      6, STRESS PERIOD     26
 UBDSV1 SAVING  CSUB-WATERCOMP  ON UNIT   1022 AT TIME STEP      6, STRESS PERIOD     26

 WEL PACKAGE (WEL_0) FLOW RATES   PERIOD     26   STEP        6
 -----------------------------------------------
   NUMBER   CELLID                    RATE      
 -----------------------------------------------
     1      (3,3,6)              -14000.000     
     2      (3,3,7)              -8000.0000     
     3      (3,4,6)              -5000.0000     
     4      (3,4,7)              -3000.0000     
 -----------------------------------------------




 CSUB-COMPACTION WILL BE SAVED ON UNIT 1018 AT END OF TIME STEP    6, STRESS PERIOD   26
1
  HEAD IN LAYER   1 AT END OF TIME STEP   6 IN STRESS PERIOD   26
  ---------------------------------------------------------------------------

                1               2               3               4               5               6               7               8               9              10
 ................................................................................................................................................................
   1      18.4696         18.0388         17.2220         16.6951         16.4215         16.3872         16.5950         17.0649         17.8390         18.2467    
   2      17.3367         16.7245         16.1987         15.8153         15.5963         15.5504         15.6804         15.9837         16.4458         17.0212    
   3      15.7900         15.1937         14.7343         14.4070         14.2100         14.1429         14.2060         14.4005         14.7340         15.2340    
   4      13.7575         13.2382         12.8660         12.6041         12.4358         12.3514         12.3420         12.3943         12.4856         12.5742    
   5      10.9190         10.8084         10.6703         10.5432         10.4445         10.3810         10.3519         10.3507         10.3657         10.3811    
   6      8.62424         8.58812         8.53124         8.46974         8.41587         8.37671         8.35425         8.34603         8.34650         8.34914    
   7      6.56200         6.53821         6.49812         6.45364         6.41670         6.39445         6.38860         6.39562         6.40742         6.41578    
   8      4.67148         4.62943         4.55839         4.48340         4.43504         4.42292         4.44804         4.50281         4.55882         4.59284    
   9      3.01528         2.90265         2.70041         2.47252         2.37425         2.36840         2.45506         2.67142         2.86476         2.97259    
  10      1.86663         1.59221         1.00257         0.00000         0.00000         0.00000         0.00000        0.989908         1.57101         1.84109    
1
  HEAD IN LAYER   2 AT END OF TIME STEP   6 IN STRESS PERIOD   26
  ---------------------------------------------------------------------------

                1               2               3               4               5               6               7               8               9              10
 ................................................................................................................................................................
   1     -5.55816        -5.55650        -5.56481        -5.57966        -5.59817        -5.61817        -5.63853        -5.65951        -5.68273        -5.71099    
   2     -5.61124        -4.83386        -5.19715        -5.72790        -6.25183        -6.63844        -6.61991        -6.29461        -5.89928        -5.85062    
   3     -5.70137        -5.38867        -5.95306        -6.79561        -7.75776        -8.70125        -8.44565        -7.74330        -6.95100        -5.99948    
   4     -5.81431        -5.68422        -6.14736        -6.77519        -7.41045        -7.84557        -7.78087        -7.45277        -7.10932        -6.13289    
   5     -5.94232        -5.87779        -6.09707        -6.39558        -6.70989        -6.96025        -7.02141        -6.93270        -6.75372        -6.24173    
   6     -6.07621        -5.97443        -6.06260        -6.19498        -6.32998        -6.43776        -6.49409        -6.50255        -6.47105        -6.33634    
   7     -6.21500        -6.12407        -6.16504        -6.23267        -6.29992        -6.35369        -6.38671        -6.40007        -6.40411        -6.42711    
   8     -6.35761        -6.39037        -6.44588        -6.50572        -6.55335        -6.58182        -6.58819        -6.57456        -6.55067        -6.51878    
   9     -6.50007        -6.76091        -6.89551        -7.00060        -7.00429        -7.00575        -7.00328        -6.96614        -6.85491        -6.60990    
  10     -6.63568        -6.66683        -6.69455        -6.71717        -6.73176        -6.73833        -6.73689        -6.72736        -6.71263        -6.69435    
1
  HEAD IN LAYER   3 AT END OF TIME STEP   6 IN STRESS PERIOD   26
  ---------------------------------------------------------------------------

                1               2               3               4               5               6               7               8               9              10
 ................................................................................................................................................................
   1     -25.7556        -25.9257        -26.2439        -26.6624        -27.1029        -27.4584        -27.6241        -27.6212        -27.5488        -27.4908    
   2     -25.7700        -26.0303        -26.5443        -27.2813        -28.1553        -28.9347        -29.0179        -28.6178        -28.2099        -27.9757    
   3     -25.4335        -25.8240        -26.6580        -28.0617        -30.2992        -33.9159        -33.0654        -30.3656        -28.8962        -28.2416    
   4     -24.2125        -24.5299        -25.1830        -26.2054        -27.6405        -29.5147        -29.2515        -27.9083        -27.0310        -26.6007    
   5     -22.3722        -22.5483        -22.8890        -23.3627        -23.8995        -24.3559        -24.4480        -24.2653        -24.0491        -23.9169    
   6     -20.4392        -20.5233        -20.6805        -20.8865        -21.1029        -21.2797        -21.3701        -21.3813        -21.3564        -21.3335    
   7     -18.7414        -18.7802        -18.8521        -18.9450        -19.0427        -19.1280        -19.1882        -19.2216        -19.2356        -19.2397    
   8     -17.4233        -17.4421        -17.4768        -17.5219        -17.5705        -17.6159        -17.6528        -17.6790        -17.6949        -17.7022    
   9     -16.5354        -16.5458        -16.5647        -16.5894        -16.6166        -16.6431        -16.6662        -16.6840        -16.6957        -16.7013    
  10     -16.0899        -16.0966        -16.1092        -16.1258        -16.1446        -16.1634        -16.1804        -16.1941        -16.2035        -16.2083    

 HEAD WILL BE SAVED ON UNIT 1023 AT END OF TIME STEP    6, STRESS PERIOD   26


  VOLUME BUDGET FOR ENTIRE MODEL AT END OF TIME STEP    6, STRESS PERIOD  26
  ---------------------------------------------------------------------------------------------------

     CUMULATIVE VOLUME      L**3       RATES FOR THIS TIME STEP      L**3/T          PACKAGE NAME    
     ------------------                 ------------------------                     ----------------

           IN:                                      IN:
           ---                                      ---
              STO-SS =           0.0000                STO-SS =           0.0000     STORAGE                          
      CSUB-CGELASTIC =     2038031.7391        CSUB-CGELASTIC =          69.1527     CSUB                             
        CSUB-ELASTIC =     4608480.8451          CSUB-ELASTIC =          27.9556     CSUB                             
      CSUB-INELASTIC =   202943089.1979        CSUB-INELASTIC =       20381.4677     CSUB                             
      CSUB-WATERCOMP =           0.0000        CSUB-WATERCOMP =           0.0000     CSUB                             
                 WEL =           0.0000                   WEL =           0.0000     WEL_0                            
                RCHA =   216985500.0000                  RCHA =       27000.0000     RCHA_0                           
                 CHD =     3403469.1871                   CHD =         161.5449     CHD_0                            

            TOTAL IN =   429978570.9692              TOTAL IN =       47640.1209

          OUT:                                     OUT:
          ----                                     ----
              STO-SS =           0.0000                STO-SS =           0.0000     STORAGE                          
      CSUB-CGELASTIC =      272965.5610        CSUB-CGELASTIC =           0.0000     CSUB                             
        CSUB-ELASTIC =      967085.3344          CSUB-ELASTIC =           0.0000     CSUB                             
      CSUB-INELASTIC =           0.0000        CSUB-INELASTIC =           0.0000     CSUB                             
      CSUB-WATERCOMP =           0.0000        CSUB-WATERCOMP =           0.0000     CSUB                             
                 WEL =   273937500.0000                   WEL =       30000.0000     WEL_0                            
                RCHA =           0.0000                  RCHA =           0.0000     RCHA_0                           
                 CHD =   154801020.2862                   CHD =       17640.1210     CHD_0                            

           TOTAL OUT =   429978571.1816             TOTAL OUT =       47640.1210

            IN - OUT =          -0.2124              IN - OUT =      -2.4568E-05

 PERCENT DISCREPANCY =          -0.00     PERCENT DISCREPANCY =          -0.00




         TIME SUMMARY AT END OF TIME STEP    6 IN STRESS PERIOD   26
                    SECONDS     MINUTES      HOURS       DAYS        YEARS
                    -----------------------------------------------------------
   TIME STEP LENGTH 9.18555E+06 1.53093E+05  2551.5      106.31     0.29107    
 STRESS PERIOD TIME 3.15576E+07 5.25960E+05  8766.0      365.25      1.0000    
         TOTAL TIME 7.89026E+08 1.31504E+07 2.19174E+05  9132.2      25.003    


end timestep


start timestep kper="27" kstp="1" mode="normal"


 OUTPUT CONTROL FOR STRESS PERIOD 27 IS REPEATED USING SETTINGS FROM A PREVIOUS STRESS PERIOD.


 STRESS PERIOD 27 IS TRANSIENT


 REUSING CSUBS FROM LAST STRESS PERIOD

end timestep


start timestep kper="27" kstp="2" mode="normal"


end timestep


start timestep kper="27" kstp="3" mode="normal"


end timestep


start timestep kper="27" kstp="4" mode="normal"


end timestep


start timestep kper="27" kstp="5" mode="normal"


end timestep


start timestep kper="27" kstp="6" mode="normal"

 UBDSV1 SAVING  CSUB-CGELASTIC  ON UNIT   1022 AT TIME STEP      6, STRESS PERIOD     27
 UBDSV06 SAVING    CSUB-ELASTIC  IN MODEL CSUB_SUB03B      PACKAGE CSUB_SUB03B     CONNECTED TO MODEL CSUB_SUB03B      PACKAGE CSUB             ON UNIT   1022 AT TIME STEP      6, STRESS PERIOD     27
 UBDSV06 SAVING  CSUB-INELASTIC  IN MODEL CSUB_SUB03B      PACKAGE CSUB_SUB03B     CONNECTED TO MODEL CSUB_SUB03B      PACKAGE CSUB             ON UNIT   1022 AT TIME STEP      6, STRESS PERIOD     27
 UBDSV1 SAVING  CSUB-WATERCOMP  ON UNIT   1022 AT TIME STEP      6, STRESS PERIOD     27

 WEL PACKAGE (WEL_0) FLOW RATES   PERIOD     27   STEP        6
 -----------------------------------------------
   NUMBER   CELLID                    RATE      
 -----------------------------------------------
     1      (3,3,6)              -14000.000     
     2      (3,3,7)              -8000.0000     
     3      (3,4,6)              -5000.0000     
     4      (3,4,7)              -3000.0000     
 -----------------------------------------------




 CSUB-COMPACTION WILL BE SAVED ON UNIT 1018 AT END OF TIME STEP    6, STRESS PERIOD   27
1
  HEAD IN LAYER   1 AT END OF TIME STEP   6 IN STRESS PERIOD   27
  ---------------------------------------------------------------------------

                1               2               3               4               5               6               7               8               9              10
 ................................................................................................................................................................
   1      18.4102         17.9794         17.1626         16.6358         16.3623         16.3281         16.5360         17.0058         17.7800         18.1877    
   2      17.2785         16.6664         16.1407         15.7574         15.5385         15.4927         15.6227         15.9261         16.3882         16.9636    
   3      15.7344         15.1381         14.6789         14.3517         14.1551         14.0881         14.1514         14.3459         14.6792         15.1791    
   4      13.7054         13.1863         12.8142         12.5526         12.3846         12.3004         12.2911         12.3434         12.4346         12.5231    
   5      10.8716         10.7611         10.6231         10.4962         10.3978         10.3345         10.3056         10.3043         10.3191         10.3345    
   6      8.58265         8.54659         8.48982         8.42846         8.37473         8.33569         8.31327         8.30503         8.30544         8.30805    
   7      6.52732         6.50364         6.46373         6.41945         6.38266         6.36046         6.35457         6.36148         6.37314         6.38142    
   8      4.64463         4.60288         4.53234         4.45786         4.40980         4.39773         4.42262         4.47695         4.53251         4.56625    
   9      2.99646         2.88468         2.68398         2.45778         2.36021         2.35439         2.44042         2.65521         2.84708         2.95404    
  10      1.85391         1.58137        0.995760         0.00000         0.00000         0.00000         0.00000        0.983192         1.56032         1.82854    
1
  HEAD IN LAYER   2 AT END OF TIME STEP   6 IN STRESS PERIOD   27
  ---------------------------------------------------------------------------

                1               2               3               4               5               6               7               8               9              10
 ................................................................................................................................................................
   1     -5.84055        -5.83931        -5.84793        -5.86296        -5.88154        -5.90150        -5.92171        -5.94242        -5.96525        -5.99300    
   2     -5.89148        -5.12995        -5.49540        -6.02577        -6.54604        -6.93413        -6.91533        -6.58860        -6.19483        -6.13011    
   3     -5.97894        -5.68053        -6.24578        -7.07282        -7.81754        -8.86208        -8.58945        -7.79623        -7.22501        -6.27591    
   4     -6.08876        -5.96964        -6.43313        -7.04511        -7.45888        -7.96171        -7.89124        -7.51763        -7.26394        -6.40584    
   5     -6.21329        -6.15553        -6.37560        -6.67286        -6.97278        -7.06112        -7.07520        -7.04849        -7.01302        -6.51132    
   6     -6.34349        -6.24357        -6.33194        -6.46424        -6.59877        -6.70385        -6.75928        -6.76894        -6.73956        -6.60240    
   7     -6.47852        -6.38429        -6.42464        -6.49210        -6.55928        -6.61301        -6.64607        -6.65960        -6.66419        -6.68955    
   8     -6.61746        -6.64172        -6.69371        -6.75148        -6.79881        -6.82730        -6.83385        -6.82123        -6.80061        -6.77766    
   9     -6.75652        -6.99784        -7.00951        -7.02603        -7.03788        -7.04139        -7.03506        -7.01867        -7.00627        -6.86544    
  10     -6.88913        -6.91963        -6.94679        -6.96900        -6.98334        -6.98986        -6.98853        -6.97929        -6.96500        -6.94728    
1
  HEAD IN LAYER   3 AT END OF TIME STEP   6 IN STRESS PERIOD   27
  ---------------------------------------------------------------------------

                1               2               3               4               5               6               7               8               9              10
 ................................................................................................................................................................
   1     -26.2988        -26.4690        -26.7873        -27.2060        -27.6466        -28.0023        -28.1681        -28.1653        -28.0931        -28.0350    
   2     -26.3094        -26.5699        -27.0839        -27.8210        -28.6950        -29.4746        -29.5579        -29.1579        -28.7502        -28.5160    
   3     -25.9656        -26.3561        -27.1901        -28.5937        -30.8309        -34.4477        -33.5972        -30.8975        -29.4285        -28.7742    
   4     -24.7344        -25.0517        -25.7048        -26.7270        -28.1617        -30.0358        -29.7727        -28.4296        -27.5527        -27.1228    
   5     -22.8819        -23.0580        -23.3988        -23.8723        -24.4089        -24.8651        -24.9571        -24.7747        -24.5589        -24.4268    
   6     -20.9360        -21.0202        -21.1774        -21.3834        -21.5998        -21.7766        -21.8670        -21.8783        -21.8536        -21.8307    
   7     -19.2258        -19.2647        -19.3365        -19.4294        -19.5272        -19.6126        -19.6728        -19.7063        -19.7204        -19.7245    
   8     -17.8971        -17.9159        -17.9504        -17.9955        -18.0441        -18.0895        -18.1265        -18.1528        -18.1688        -18.1762    
   9     -17.0014        -17.0116        -17.0302        -17.0546        -17.0817        -17.1082        -17.1314        -17.1495        -17.1615        -17.1674    
  10     -16.5520        -16.5587        -16.5711        -16.5876        -16.6064        -16.6252        -16.6422        -16.6561        -16.6657        -16.6706    

 HEAD WILL BE SAVED ON UNIT 1023 AT END OF TIME STEP    6, STRESS PERIOD   27


  VOLUME BUDGET FOR ENTIRE MODEL AT END OF TIME STEP    6, STRESS PERIOD  27
  ---------------------------------------------------------------------------------------------------

     CUMULATIVE VOLUME      L**3       RATES FOR THIS TIME STEP      L**3/T          PACKAGE NAME    
     ------------------                 ------------------------                     ----------------

           IN:                                      IN:
           ---                                      ---
              STO-SS =           0.0000                STO-SS =           0.0000     STORAGE                          
      CSUB-CGELASTIC =     2063117.2589        CSUB-CGELASTIC =          68.3731     CSUB                             
        CSUB-ELASTIC =     4618052.4789          CSUB-ELASTIC =          25.2859     CSUB                             
      CSUB-INELASTIC =   210362219.1292        CSUB-INELASTIC =       20267.3721     CSUB                             
      CSUB-WATERCOMP =           0.0000        CSUB-WATERCOMP =           0.0000     CSUB                             
                 WEL =           0.0000                   WEL =           0.0000     WEL_0                            
                RCHA =   226847250.0000                  RCHA =       27000.0000     RCHA_0                           
                 CHD =     3463799.6570                   CHD =         167.5844     CHD_0                            

            TOTAL IN =   447354438.5240              TOTAL IN =       47528.6155

          OUT:                                     OUT:
          ----                                     ----
              STO-SS =           0.0000                STO-SS =           0.0000     STORAGE                          
      CSUB-CGELASTIC =      272965.5610        CSUB-CGELASTIC =           0.0000     CSUB                             
        CSUB-ELASTIC =      967085.3344          CSUB-ELASTIC =           0.0000     CSUB                             
      CSUB-INELASTIC =           0.0000        CSUB-INELASTIC =           0.0000     CSUB                             
      CSUB-WATERCOMP =           0.0000        CSUB-WATERCOMP =           0.0000     CSUB                             
                 WEL =   284895000.0000                   WEL =       30000.0000     WEL_0                            
                RCHA =           0.0000                  RCHA =           0.0000     RCHA_0                           
                 CHD =   161219387.8497                   CHD =       17528.6155     CHD_0                            

           TOTAL OUT =   447354438.7452             TOTAL OUT =       47528.6155

            IN - OUT =          -0.2212              IN - OUT =      -2.3684E-05

 PERCENT DISCREPANCY =          -0.00     PERCENT DISCREPANCY =          -0.00




         TIME SUMMARY AT END OF TIME STEP    6 IN STRESS PERIOD   27
                    SECONDS     MINUTES      HOURS       DAYS        YEARS
                    -----------------------------------------------------------
   TIME STEP LENGTH 9.18555E+06 1.53093E+05  2551.5      106.31     0.29107    
 STRESS PERIOD TIME 3.15576E+07 5.25960E+05  8766.0      365.25      1.0000    
         TOTAL TIME 8.20584E+08 1.36764E+07 2.27940E+05  9497.5      26.003    


end timestep


start timestep kper="28" kstp="1" mode="normal"


 OUTPUT CONTROL FOR STRESS PERIOD 28 IS REPEATED USING SETTINGS FROM A PREVIOUS STRESS PERIOD.


 STRESS PERIOD 28 IS TRANSIENT


 REUSING CSUBS FROM LAST STRESS PERIOD

end timestep


start timestep kper="28" kstp="2" mode="normal"


end timestep


start timestep kper="28" kstp="3" mode="normal"


end timestep


start timestep kper="28" kstp="4" mode="normal"


end timestep


start timestep kper="28" kstp="5" mode="normal"


end timestep


start timestep kper="28" kstp="6" mode="normal"

 UBDSV1 SAVING  CSUB-CGELASTIC  ON UNIT   1022 AT TIME STEP      6, STRESS PERIOD     28
 UBDSV06 SAVING    CSUB-ELASTIC  IN MODEL CSUB_SUB03B      PACKAGE CSUB_SUB03B     CONNECTED TO MODEL CSUB_SUB03B      PACKAGE CSUB             ON UNIT   1022 AT TIME STEP      6, STRESS PERIOD     28
 UBDSV06 SAVING  CSUB-INELASTIC  IN MODEL CSUB_SUB03B      PACKAGE CSUB_SUB03B     CONNECTED TO MODEL CSUB_SUB03B      PACKAGE CSUB             ON UNIT   1022 AT TIME STEP      6, STRESS PERIOD     28
 UBDSV1 SAVING  CSUB-WATERCOMP  ON UNIT   1022 AT TIME STEP      6, STRESS PERIOD     28

 WEL PACKAGE (WEL_0) FLOW RATES   PERIOD     28   STEP        6
 -----------------------------------------------
   NUMBER   CELLID                    RATE      
 -----------------------------------------------
     1      (3,3,6)              -14000.000     
     2      (3,3,7)              -8000.0000     
     3      (3,4,6)              -5000.0000     
     4      (3,4,7)              -3000.0000     
 -----------------------------------------------




 CSUB-COMPACTION WILL BE SAVED ON UNIT 1018 AT END OF TIME STEP    6, STRESS PERIOD   28
1
  HEAD IN LAYER   1 AT END OF TIME STEP   6 IN STRESS PERIOD   28
  ---------------------------------------------------------------------------

                1               2               3               4               5               6               7               8               9              10
 ................................................................................................................................................................
   1      18.3591         17.9284         17.1116         16.5849         16.3114         16.2773         16.4852         16.9552         17.7294         18.1372    
   2      17.2286         16.6164         16.0907         15.7075         15.4888         15.4430         15.5732         15.8766         16.3388         16.9142    
   3      15.6866         15.0903         14.6312         14.3043         14.1079         14.0411         14.1045         14.2991         14.6323         15.1323    
   4      13.6609         13.1418         12.7699         12.5085         12.3409         12.2569         12.2478         12.3002         12.3914         12.4798    
   5      10.8313         10.7207         10.5829         10.4562         10.3582         10.2952         10.2664         10.2653         10.2801         10.2953    
   6      8.54746         8.51138         8.45466         8.39342         8.33986         8.30096         8.27868         8.27053         8.27100         8.27368    
   7      6.49823         6.47455         6.43472         6.39057         6.35392         6.33181         6.32597         6.33288         6.34456         6.35289    
   8      4.62249         4.58087         4.51063         4.43651         4.38872         4.37674         4.40153         4.45560         4.51090         4.54452    
   9      2.98147         2.87032         2.67067         2.44564         2.34858         2.34280         2.42839         2.64208         2.83295         2.93932    
  10      1.84417         1.57308        0.990547         0.00000         0.00000         0.00000         0.00000        0.978085         1.55221         1.81902    
1
  HEAD IN LAYER   2 AT END OF TIME STEP   6 IN STRESS PERIOD   28
  ---------------------------------------------------------------------------

                1               2               3               4               5               6               7               8               9              10
 ................................................................................................................................................................
   1     -6.07379        -6.07384        -6.08336        -6.09892        -6.11764        -6.13737        -6.15697        -6.17669        -6.19814        -6.22412    
   2     -6.11804        -5.41142        -5.78416        -6.31458        -6.83186        -7.22113        -7.20201        -6.87361        -6.47477        -6.35255    
   3     -6.19695        -5.95850        -6.53079        -7.34402        -7.91175        -9.03913        -8.75226        -7.88435        -7.45796        -6.48769    
   4     -6.29625        -6.24036        -6.70523        -7.20339        -7.54132        -8.09926        -8.02407        -7.61168        -7.31209        -6.60500    
   5     -6.40814        -6.41832        -6.64648        -6.92982        -7.03749        -7.11229        -7.13239        -7.09658        -7.04156        -6.69643    
   6     -6.52343        -6.49717        -6.59541        -6.72785        -6.85902        -6.96233        -7.00100        -7.00154        -6.98604        -6.77186    
   7     -6.64110        -6.62794        -6.67915        -6.74722        -6.81375        -6.86694        -6.89956        -6.91235        -6.90558        -6.84064    
   8     -6.75997        -6.87201        -6.93537        -6.99182        -7.00219        -7.00370        -7.00426        -7.00333        -7.00159        -6.90735    
   9     -6.87589        -7.02345        -7.05031        -7.08125        -7.09986        -7.10509        -7.09547        -7.06845        -7.04385        -6.97042    
  10     -6.98264        -7.00576        -7.02541        -7.04197        -7.05252        -7.05705        -7.05553        -7.04787        -7.03694        -7.02436    
1
  HEAD IN LAYER   3 AT END OF TIME STEP   6 IN STRESS PERIOD   28
  ---------------------------------------------------------------------------

                1               2               3               4               5               6               7               8               9              10
 ................................................................................................................................................................
   1     -26.8339        -27.0042        -27.3226        -27.7414        -28.1821        -28.5379        -28.7038        -28.7010        -28.6288        -28.5708    
   2     -26.8411        -27.1017        -27.6158        -28.3530        -29.2271        -30.0067        -30.0900        -29.6901        -29.2823        -29.0481    
   3     -26.4905        -26.8811        -27.7151        -29.1186        -31.3555        -34.9723        -34.1218        -31.4220        -29.9532        -29.2990    
   4     -25.2498        -25.5672        -26.2201        -27.2421        -28.6764        -30.5505        -30.2872        -28.9440        -28.0672        -27.6375    
   5     -23.3861        -23.5623        -23.9030        -24.3763        -24.9125        -25.3683        -25.4603        -25.2778        -25.0620        -24.9302    
   6     -21.4284        -21.5127        -21.6699        -21.8759        -22.0922        -22.2689        -22.3592        -22.3705        -22.3457        -22.3227    
   7     -19.7066        -19.7457        -19.8176        -19.9105        -20.0083        -20.0936        -20.1538        -20.1872        -20.2013        -20.2052    
   8     -18.3677        -18.3866        -18.4212        -18.4663        -18.5148        -18.5602        -18.5971        -18.6234        -18.6394        -18.6467    
   9     -17.4641        -17.4742        -17.4928        -17.5172        -17.5442        -17.5707        -17.5939        -17.6120        -17.6241        -17.6301    
  10     -17.0107        -17.0173        -17.0297        -17.0462        -17.0649        -17.0837        -17.1008        -17.1146        -17.1243        -17.1292    

 HEAD WILL BE SAVED ON UNIT 1023 AT END OF TIME STEP    6, STRESS PERIOD   28


  VOLUME BUDGET FOR ENTIRE MODEL AT END OF TIME STEP    6, STRESS PERIOD  28
  ---------------------------------------------------------------------------------------------------

     CUMULATIVE VOLUME      L**3       RATES FOR THIS TIME STEP      L**3/T          PACKAGE NAME    
     ------------------                 ------------------------                     ----------------

           IN:                                      IN:
           ---                                      ---
              STO-SS =           0.0000                STO-SS =           0.0000     STORAGE                          
      CSUB-CGELASTIC =     2087800.8726        CSUB-CGELASTIC =          67.1464     CSUB                             
        CSUB-ELASTIC =     4625308.1476          CSUB-ELASTIC =          18.1235     CSUB                             
      CSUB-INELASTIC =   217746902.6278        CSUB-INELASTIC =       20185.4226     CSUB                             
      CSUB-WATERCOMP =           0.0000        CSUB-WATERCOMP =           0.0000     CSUB                             
                 WEL =           0.0000                   WEL =           0.0000     WEL_0                            
                RCHA =   236709000.0000                  RCHA =       27000.0000     RCHA_0                           
                 CHD =     3525387.2092                   CHD =         169.2425     CHD_0                            

            TOTAL IN =   464694398.8572              TOTAL IN =       47439.9350

          OUT:                                     OUT:
          ----                                     ----
              STO-SS =           0.0000                STO-SS =           0.0000     STORAGE                          
      CSUB-CGELASTIC =      272965.5610        CSUB-CGELASTIC =           0.0000     CSUB                             
        CSUB-ELASTIC =      967085.3344          CSUB-ELASTIC =           0.0000     CSUB                             
      CSUB-INELASTIC =           0.0000        CSUB-INELASTIC =           0.0000     CSUB                             
      CSUB-WATERCOMP =           0.0000        CSUB-WATERCOMP =           0.0000     CSUB                             
                 WEL =   295852500.0000                   WEL =       30000.0000     WEL_0                            
                RCHA =           0.0000                  RCHA =           0.0000     RCHA_0                           
                 CHD =   167601848.1919                   CHD =       17439.9351     CHD_0                            

           TOTAL OUT =   464694399.0873             TOTAL OUT =       47439.9351

            IN - OUT =          -0.2301              IN - OUT =      -2.4956E-05

 PERCENT DISCREPANCY =          -0.00     PERCENT DISCREPANCY =          -0.00




         TIME SUMMARY AT END OF TIME STEP    6 IN STRESS PERIOD   28
                    SECONDS     MINUTES      HOURS       DAYS        YEARS
                    -----------------------------------------------------------
   TIME STEP LENGTH 9.18555E+06 1.53093E+05  2551.5      106.31     0.29107    
 STRESS PERIOD TIME 3.15576E+07 5.25960E+05  8766.0      365.25      1.0000    
         TOTAL TIME 8.52142E+08 1.42024E+07 2.36706E+05  9862.8      27.003    


end timestep


start timestep kper="29" kstp="1" mode="normal"


 OUTPUT CONTROL FOR STRESS PERIOD 29 IS REPEATED USING SETTINGS FROM A PREVIOUS STRESS PERIOD.


 STRESS PERIOD 29 IS TRANSIENT


 REUSING CSUBS FROM LAST STRESS PERIOD

end timestep


start timestep kper="29" kstp="2" mode="normal"


end timestep


start timestep kper="29" kstp="3" mode="normal"


end timestep


start timestep kper="29" kstp="4" mode="normal"


end timestep


start timestep kper="29" kstp="5" mode="normal"


end timestep


start timestep kper="29" kstp="6" mode="normal"

 UBDSV1 SAVING  CSUB-CGELASTIC  ON UNIT   1022 AT TIME STEP      6, STRESS PERIOD     29
 UBDSV06 SAVING    CSUB-ELASTIC  IN MODEL CSUB_SUB03B      PACKAGE CSUB_SUB03B     CONNECTED TO MODEL CSUB_SUB03B      PACKAGE CSUB             ON UNIT   1022 AT TIME STEP      6, STRESS PERIOD     29
 UBDSV06 SAVING  CSUB-INELASTIC  IN MODEL CSUB_SUB03B      PACKAGE CSUB_SUB03B     CONNECTED TO MODEL CSUB_SUB03B      PACKAGE CSUB             ON UNIT   1022 AT TIME STEP      6, STRESS PERIOD     29
 UBDSV1 SAVING  CSUB-WATERCOMP  ON UNIT   1022 AT TIME STEP      6, STRESS PERIOD     29

 WEL PACKAGE (WEL_0) FLOW RATES   PERIOD     29   STEP        6
 -----------------------------------------------
   NUMBER   CELLID                    RATE      
 -----------------------------------------------
     1      (3,3,6)              -14000.000     
     2      (3,3,7)              -8000.0000     
     3      (3,4,6)              -5000.0000     
     4      (3,4,7)              -3000.0000     
 -----------------------------------------------




 CSUB-COMPACTION WILL BE SAVED ON UNIT 1018 AT END OF TIME STEP    6, STRESS PERIOD   29
1
  HEAD IN LAYER   1 AT END OF TIME STEP   6 IN STRESS PERIOD   29
  ---------------------------------------------------------------------------

                1               2               3               4               5               6               7               8               9              10
 ................................................................................................................................................................
   1      18.3158         17.8851         17.0684         16.5417         16.2683         16.2342         16.4423         16.9123         17.6866         18.0944    
   2      17.1863         16.5741         16.0485         15.6654         15.4468         15.4011         15.5314         15.8349         16.2972         16.8726    
   3      15.6464         15.0502         14.5912         14.2646         14.0684         14.0017         14.0652         14.2600         14.5933         15.0932    
   4      13.6238         13.1047         12.7330         12.4720         12.3045         12.2207         12.2117         12.2643         12.3556         12.4440    
   5      10.7980         10.6874         10.5498         10.4235         10.3258         10.2630         10.2344         10.2334         10.2482         10.2634    
   6      8.51858         8.48253         8.42597         8.36501         8.31183         8.27329         8.25125         8.24323         8.24372         8.24633    
   7      6.47462         6.45098         6.41133         6.36746         6.33113         6.30931         6.30365         6.31062         6.32228         6.33057    
   8      4.60474         4.56334         4.49351         4.41983         4.37236         4.36053         4.38530         4.43919         4.49426         4.52770    
   9      2.96942         2.85880         2.66004         2.43600         2.33940         2.33369         2.41897         2.63180         2.82189         2.92780    
  10      1.83631         1.56639        0.986336         0.00000         0.00000         0.00000         0.00000        0.974023         1.54576         1.81146    
1
  HEAD IN LAYER   2 AT END OF TIME STEP   6 IN STRESS PERIOD   29
  ---------------------------------------------------------------------------

                1               2               3               4               5               6               7               8               9              10
 ................................................................................................................................................................
   1     -6.29405        -6.29525        -6.30552        -6.32143        -6.34011        -6.35941        -6.37819        -6.39669        -6.41653        -6.44046    
   2     -6.33215        -5.68374        -6.06420        -6.59193        -7.10761        -7.46133        -7.46650        -7.14973        -6.74197        -6.55906    
   3     -6.40302        -6.22702        -6.79536        -7.41513        -8.03289        -9.22931        -8.93053        -7.99951        -7.49124        -6.68228    
   4     -6.49227        -6.50214        -6.96120        -7.24766        -7.64959        -8.25447        -8.17545        -7.72975        -7.39371        -6.78629    
   5     -6.59201        -6.67263        -6.89970        -7.01550        -7.09285        -7.19264        -7.21784        -7.17413        -7.10522        -6.86262    
   6     -6.69291        -6.74346        -6.85193        -6.97598        -7.00685        -7.01883        -7.02767        -7.02931        -7.02286        -6.92097    
   7     -6.79377        -6.86348        -6.92517        -6.98971        -7.00297        -7.00693        -7.01001        -7.01138        -7.01043        -6.97051    
   8     -6.89316        -7.00633        -7.01364        -7.02169        -7.03028        -7.03550        -7.03679        -7.03407        -7.02904        -7.01518    
   9     -6.98703        -7.07773        -7.11765        -7.16071        -7.18501        -7.19167        -7.17922        -7.14323        -7.10924        -7.06177    
  10     -7.06899        -7.08935        -7.10870        -7.12526        -7.13603        -7.14095        -7.13997        -7.13301        -7.12291        -7.11131    
1
  HEAD IN LAYER   3 AT END OF TIME STEP   6 IN STRESS PERIOD   29
  ---------------------------------------------------------------------------

                1               2               3               4               5               6               7               8               9              10
 ................................................................................................................................................................
   1     -27.3609        -27.5311        -27.8497        -28.2685        -28.7093        -29.0651        -29.2310        -29.2283        -29.1561        -29.0981    
   2     -27.3649        -27.6255        -28.1397        -28.8769        -29.7510        -30.5306        -30.6139        -30.2140        -29.8061        -29.5719    
   3     -27.0078        -27.3985        -28.2324        -29.6355        -31.8724        -35.4892        -34.6387        -31.9387        -30.4698        -29.8157    
   4     -25.7583        -26.0757        -26.7284        -27.7499        -29.1841        -31.0580        -30.7947        -29.4514        -28.5744        -28.1449    
   5     -23.8842        -24.0604        -24.4009        -24.8737        -25.4095        -25.8651        -25.9569        -25.7743        -25.5586        -25.4269    
   6     -21.9154        -21.9997        -22.1569        -22.3626        -22.5785        -22.7547        -22.8447        -22.8559        -22.8310        -22.8082    
   7     -20.1827        -20.2219        -20.2937        -20.3865        -20.4839        -20.5689        -20.6289        -20.6621        -20.6761        -20.6801    
   8     -18.8340        -18.8528        -18.8873        -18.9321        -18.9805        -19.0257        -19.0625        -19.0888        -19.1048        -19.1122    
   9     -17.9231        -17.9331        -17.9516        -17.9759        -18.0029        -18.0293        -18.0525        -18.0705        -18.0827        -18.0887    
  10     -17.4659        -17.4725        -17.4848        -17.5013        -17.5199        -17.5387        -17.5558        -17.5696        -17.5793        -17.5842    

 HEAD WILL BE SAVED ON UNIT 1023 AT END OF TIME STEP    6, STRESS PERIOD   29


  VOLUME BUDGET FOR ENTIRE MODEL AT END OF TIME STEP    6, STRESS PERIOD  29
  ---------------------------------------------------------------------------------------------------

     CUMULATIVE VOLUME      L**3       RATES FOR THIS TIME STEP      L**3/T          PACKAGE NAME    
     ------------------                 ------------------------                     ----------------

           IN:                                      IN:
           ---                                      ---
              STO-SS =           0.0000                STO-SS =           0.0000     STORAGE                          
      CSUB-CGELASTIC =     2112046.4920        CSUB-CGELASTIC =          65.9450     CSUB                             
        CSUB-ELASTIC =     4630616.0823          CSUB-ELASTIC =          13.0505     CSUB                             
      CSUB-INELASTIC =   225105008.7055        CSUB-INELASTIC =       20119.2490     CSUB                             
      CSUB-WATERCOMP =           0.0000        CSUB-WATERCOMP =           0.0000     CSUB                             
                 WEL =           0.0000                   WEL =           0.0000     WEL_0                            
                RCHA =   246570750.0000                  RCHA =       27000.0000     RCHA_0                           
                 CHD =     3587624.7504                   CHD =         171.2532     CHD_0                            

            TOTAL IN =   482006046.0302              TOTAL IN =       47369.4977

          OUT:                                     OUT:
          ----                                     ----
              STO-SS =           0.0000                STO-SS =           0.0000     STORAGE                          
      CSUB-CGELASTIC =      272965.5610        CSUB-CGELASTIC =           0.0000     CSUB                             
        CSUB-ELASTIC =      967085.3344          CSUB-ELASTIC =           0.0000     CSUB                             
      CSUB-INELASTIC =           0.0000        CSUB-INELASTIC =           0.0000     CSUB                             
      CSUB-WATERCOMP =           0.0000        CSUB-WATERCOMP =           0.0000     CSUB                             
                 WEL =   306810000.0000                   WEL =       30000.0000     WEL_0                            
                RCHA =           0.0000                  RCHA =           0.0000     RCHA_0                           
                 CHD =   173955995.3736                   CHD =       17369.4977     CHD_0                            

           TOTAL OUT =   482006046.2690             TOTAL OUT =       47369.4977

            IN - OUT =          -0.2388              IN - OUT =      -2.3896E-05

 PERCENT DISCREPANCY =          -0.00     PERCENT DISCREPANCY =          -0.00




         TIME SUMMARY AT END OF TIME STEP    6 IN STRESS PERIOD   29
                    SECONDS     MINUTES      HOURS       DAYS        YEARS
                    -----------------------------------------------------------
   TIME STEP LENGTH 9.18555E+06 1.53093E+05  2551.5      106.31     0.29107    
 STRESS PERIOD TIME 3.15576E+07 5.25960E+05  8766.0      365.25      1.0000    
         TOTAL TIME 8.83699E+08 1.47283E+07 2.45472E+05  10228.      28.003    


end timestep


start timestep kper="30" kstp="1" mode="normal"


 OUTPUT CONTROL FOR STRESS PERIOD 30 IS REPEATED USING SETTINGS FROM A PREVIOUS STRESS PERIOD.


 STRESS PERIOD 30 IS TRANSIENT


 REUSING CSUBS FROM LAST STRESS PERIOD

end timestep


start timestep kper="30" kstp="2" mode="normal"


end timestep


start timestep kper="30" kstp="3" mode="normal"


end timestep


start timestep kper="30" kstp="4" mode="normal"


end timestep


start timestep kper="30" kstp="5" mode="normal"


end timestep


start timestep kper="30" kstp="6" mode="normal"

 UBDSV1 SAVING  CSUB-CGELASTIC  ON UNIT   1022 AT TIME STEP      6, STRESS PERIOD     30
 UBDSV06 SAVING    CSUB-ELASTIC  IN MODEL CSUB_SUB03B      PACKAGE CSUB_SUB03B     CONNECTED TO MODEL CSUB_SUB03B      PACKAGE CSUB             ON UNIT   1022 AT TIME STEP      6, STRESS PERIOD     30
 UBDSV06 SAVING  CSUB-INELASTIC  IN MODEL CSUB_SUB03B      PACKAGE CSUB_SUB03B     CONNECTED TO MODEL CSUB_SUB03B      PACKAGE CSUB             ON UNIT   1022 AT TIME STEP      6, STRESS PERIOD     30
 UBDSV1 SAVING  CSUB-WATERCOMP  ON UNIT   1022 AT TIME STEP      6, STRESS PERIOD     30

 WEL PACKAGE (WEL_0) FLOW RATES   PERIOD     30   STEP        6
 -----------------------------------------------
   NUMBER   CELLID                    RATE      
 -----------------------------------------------
     1      (3,3,6)              -14000.000     
     2      (3,3,7)              -8000.0000     
     3      (3,4,6)              -5000.0000     
     4      (3,4,7)              -3000.0000     
 -----------------------------------------------




 CSUB-COMPACTION WILL BE SAVED ON UNIT 1018 AT END OF TIME STEP    6, STRESS PERIOD   30
1
  HEAD IN LAYER   1 AT END OF TIME STEP   6 IN STRESS PERIOD   30
  ---------------------------------------------------------------------------

                1               2               3               4               5               6               7               8               9              10
 ................................................................................................................................................................
   1      18.2785         17.8478         17.0312         16.5046         16.2313         16.1974         16.4055         16.8755         17.6499         18.0577    
   2      17.1499         16.5377         16.0122         15.6292         15.4108         15.3654         15.4957         15.7991         16.2615         16.8369    
   3      15.6120         15.0157         14.5569         14.2305         14.0345         13.9678         14.0314         14.2263         14.5597         15.0596    
   4      13.5921         13.0731         12.7016         12.4408         12.2734         12.1897         12.1808         12.2334         12.3248         12.4132    
   5      10.7698         10.6593         10.5219         10.3958         10.2983         10.2356         10.2070         10.2061         10.2210         10.2362    
   6      8.49446         8.45848         8.40216         8.34149         8.28850         8.25008         8.22809         8.22008         8.22056         8.22311    
   7      6.45509         6.43158         6.39217         6.34856         6.31241         6.29067         6.28502         6.29195         6.30353         6.31173    
   8      4.59004         4.54886         4.47934         4.40597         4.35868         4.34690         4.37158         4.42526         4.48011         4.51338    
   9      2.95927         2.84908         2.65107         2.42785         2.33161         2.32592         2.41089         2.62295         2.81234         2.91785    
  10      1.82955         1.56062        0.982707         0.00000         0.00000         0.00000         0.00000        0.970457         1.54010         1.80483    
1
  HEAD IN LAYER   2 AT END OF TIME STEP   6 IN STRESS PERIOD   30
  ---------------------------------------------------------------------------

                1               2               3               4               5               6               7               8               9              10
 ................................................................................................................................................................
   1     -6.49920        -6.50126        -6.51195        -6.52781        -6.54600        -6.56435        -6.58178        -6.59852        -6.61612        -6.63732    
   2     -6.53206        -5.94789        -6.33655        -6.85973        -7.34870        -7.49507        -7.49604        -7.40010        -6.99918        -6.74302    
   3     -6.59556        -6.48759        -7.04968        -7.47326        -8.17456        -9.42954        -9.12083        -8.13615        -7.56101        -6.85081    
   4     -6.67524        -6.74951        -7.08948        -7.32403        -7.77904        -8.42420        -8.34205        -7.86776        -7.50194        -6.93726    
   5     -6.76310        -6.91184        -7.01122        -7.06596        -7.17582        -7.29704        -7.32668        -7.27617        -7.19681        -6.99339    
   6     -6.84969        -6.97644        -7.00562        -7.02019        -7.04476        -7.06965        -7.08479        -7.08736        -7.07867        -7.02857    
   7     -6.93358        -7.00584        -7.01245        -7.02129        -7.03299        -7.04357        -7.05064        -7.05357        -7.05281        -7.06570    
   8     -7.01344        -7.04333        -7.05797        -7.07297        -7.08681        -7.09514        -7.09704        -7.09278        -7.08606        -7.11023    
   9     -7.09272        -7.15714        -7.20719        -7.26053        -7.28973        -7.29762        -7.28273        -7.23915        -7.19758        -7.16147    
  10     -7.17597        -7.19627        -7.21534        -7.23149        -7.24179        -7.24623        -7.24474        -7.23725        -7.22657        -7.21430    
1
  HEAD IN LAYER   3 AT END OF TIME STEP   6 IN STRESS PERIOD   30
  ---------------------------------------------------------------------------

                1               2               3               4               5               6               7               8               9              10
 ................................................................................................................................................................
   1     -27.8795        -28.0498        -28.3684        -28.7871        -29.2279        -29.5837        -29.7496        -29.7469        -29.6747        -29.6167    
   2     -27.8805        -28.1413        -28.6554        -29.3925        -30.2664        -31.0457        -31.1290        -30.7292        -30.3215        -30.0872    
   3     -27.5174        -27.9081        -28.7418        -30.1446        -32.3814        -35.9983        -35.1476        -32.4476        -30.9785        -30.3245    
   4     -26.2595        -26.5768        -27.2292        -28.2504        -29.6844        -31.5584        -31.2949        -29.9515        -29.0745        -28.6450    
   5     -24.3754        -24.5516        -24.8916        -25.3640        -25.8996        -26.3551        -26.4468        -26.2641        -26.0483        -25.9167    
   6     -22.3961        -22.4804        -22.6372        -22.8424        -23.0579        -23.2339        -23.3238        -23.3349        -23.3101        -23.2874    
   7     -20.6532        -20.6922        -20.7637        -20.8561        -20.9533        -21.0381        -21.0979        -21.1311        -21.1452        -21.1493    
   8     -19.2956        -19.3142        -19.3485        -19.3932        -19.4414        -19.4865        -19.5233        -19.5495        -19.5655        -19.5730    
   9     -18.3784        -18.3884        -18.4068        -18.4310        -18.4580        -18.4844        -18.5075        -18.5255        -18.5376        -18.5436    
  10     -17.9180        -17.9246        -17.9369        -17.9533        -17.9719        -17.9907        -18.0077        -18.0215        -18.0312        -18.0361    

 HEAD WILL BE SAVED ON UNIT 1023 AT END OF TIME STEP    6, STRESS PERIOD   30


  VOLUME BUDGET FOR ENTIRE MODEL AT END OF TIME STEP    6, STRESS PERIOD  30
  ---------------------------------------------------------------------------------------------------

     CUMULATIVE VOLUME      L**3       RATES FOR THIS TIME STEP      L**3/T          PACKAGE NAME    
     ------------------                 ------------------------                     ----------------

           IN:                                      IN:
           ---                                      ---
              STO-SS =           0.0000                STO-SS =           0.0000     STORAGE                          
      CSUB-CGELASTIC =     2135892.0387        CSUB-CGELASTIC =          64.9030     CSUB                             
        CSUB-ELASTIC =     4634513.5752          CSUB-ELASTIC =           9.6220     CSUB                             
      CSUB-INELASTIC =   232440733.5061        CSUB-INELASTIC =       20060.6068     CSUB                             
      CSUB-WATERCOMP =           0.0000        CSUB-WATERCOMP =           0.0000     CSUB                             
                 WEL =           0.0000                   WEL =           0.0000     WEL_0                            
                RCHA =   256432500.0000                  RCHA =       27000.0000     RCHA_0                           
                 CHD =     3650718.5381                   CHD =         173.7855     CHD_0                            

            TOTAL IN =   499294357.6582              TOTAL IN =       47308.9174

          OUT:                                     OUT:
          ----                                     ----
              STO-SS =           0.0000                STO-SS =           0.0000     STORAGE                          
      CSUB-CGELASTIC =      272965.5610        CSUB-CGELASTIC =           0.0000     CSUB                             
        CSUB-ELASTIC =      967085.3344          CSUB-ELASTIC =           0.0000     CSUB                             
      CSUB-INELASTIC =           0.0000        CSUB-INELASTIC =           0.0000     CSUB                             
      CSUB-WATERCOMP =           0.0000        CSUB-WATERCOMP =           0.0000     CSUB                             
                 WEL =   317767500.0000                   WEL =       30000.0000     WEL_0                            
                RCHA =           0.0000                  RCHA =           0.0000     RCHA_0                           
                 CHD =   180286807.0104                   CHD =       17308.9175     CHD_0                            

           TOTAL OUT =   499294357.9058             TOTAL OUT =       47308.9175

            IN - OUT =          -0.2476              IN - OUT =      -2.4205E-05

 PERCENT DISCREPANCY =          -0.00     PERCENT DISCREPANCY =          -0.00




         TIME SUMMARY AT END OF TIME STEP    6 IN STRESS PERIOD   30
                    SECONDS     MINUTES      HOURS       DAYS        YEARS
                    -----------------------------------------------------------
   TIME STEP LENGTH 9.18555E+06 1.53093E+05  2551.5      106.31     0.29107    
 STRESS PERIOD TIME 3.15576E+07 5.25960E+05  8766.0      365.25      1.0000    
         TOTAL TIME 9.15257E+08 1.52543E+07 2.54238E+05  10593.      29.003    


end timestep


start timestep kper="31" kstp="1" mode="normal"


 OUTPUT CONTROL FOR STRESS PERIOD 31 IS REPEATED USING SETTINGS FROM A PREVIOUS STRESS PERIOD.


 STRESS PERIOD 31 IS TRANSIENT


 REUSING CSUBS FROM LAST STRESS PERIOD

end timestep


start timestep kper="31" kstp="2" mode="normal"


end timestep


start timestep kper="31" kstp="3" mode="normal"


end timestep


start timestep kper="31" kstp="4" mode="normal"


end timestep


start timestep kper="31" kstp="5" mode="normal"


end timestep


start timestep kper="31" kstp="6" mode="normal"

 UBDSV1 SAVING  CSUB-CGELASTIC  ON UNIT   1022 AT TIME STEP      6, STRESS PERIOD     31
 UBDSV06 SAVING    CSUB-ELASTIC  IN MODEL CSUB_SUB03B      PACKAGE CSUB_SUB03B     CONNECTED TO MODEL CSUB_SUB03B      PACKAGE CSUB             ON UNIT   1022 AT TIME STEP      6, STRESS PERIOD     31
 UBDSV06 SAVING  CSUB-INELASTIC  IN MODEL CSUB_SUB03B      PACKAGE CSUB_SUB03B     CONNECTED TO MODEL CSUB_SUB03B      PACKAGE CSUB             ON UNIT   1022 AT TIME STEP      6, STRESS PERIOD     31
 UBDSV1 SAVING  CSUB-WATERCOMP  ON UNIT   1022 AT TIME STEP      6, STRESS PERIOD     31

 WEL PACKAGE (WEL_0) FLOW RATES   PERIOD     31   STEP        6
 -----------------------------------------------
   NUMBER   CELLID                    RATE      
 -----------------------------------------------
     1      (3,3,6)              -14000.000     
     2      (3,3,7)              -8000.0000     
     3      (3,4,6)              -5000.0000     
     4      (3,4,7)              -3000.0000     
 -----------------------------------------------




 CSUB-COMPACTION WILL BE SAVED ON UNIT 1018 AT END OF TIME STEP    6, STRESS PERIOD   31
1
  HEAD IN LAYER   1 AT END OF TIME STEP   6 IN STRESS PERIOD   31
  ---------------------------------------------------------------------------

                1               2               3               4               5               6               7               8               9              10
 ................................................................................................................................................................
   1      18.2455         17.8148         16.9982         16.4717         16.1986         16.1647         16.3729         16.8430         17.6174         18.0252    
   2      17.1176         16.5054         15.9800         15.5972         15.3790         15.3338         15.4642         15.7676         16.2298         16.8053    
   3      15.5814         14.9852         14.5265         14.2003         14.0042         13.9376         14.0013         14.1962         14.5297         15.0296    
   4      13.5640         13.0451         12.6737         12.4130         12.2456         12.1618         12.1529         12.2056         12.2971         12.3855    
   5      10.7449         10.6345         10.4972         10.3712         10.2736         10.2109         10.1823         10.1813         10.1963         10.2114    
   6      8.47323         8.43735         8.38110         8.32045         8.26744         8.22898         8.20694         8.19890         8.19933         8.20185    
   7      6.43775         6.41435         6.37503         6.33148         6.29535         6.27358         6.26785         6.27469         6.28617         6.29429    
   8      4.57672         4.53571         4.46641         4.39324         4.34606         4.33426         4.35879         4.41223         4.46685         4.49997    
   9      2.94990         2.84010         2.64275         2.42028         2.32433         2.31863         2.40328         2.61457         2.80329         2.90842    
  10      1.82322         1.55522        0.979306         0.00000         0.00000         0.00000         0.00000        0.967038         1.53467         1.79847    
1
  HEAD IN LAYER   2 AT END OF TIME STEP   6 IN STRESS PERIOD   31
  ---------------------------------------------------------------------------

                1               2               3               4               5               6               7               8               9              10
 ................................................................................................................................................................
   1     -6.68123        -6.68399        -6.69482        -6.71027        -6.72749        -6.74436        -6.75978        -6.77397        -6.78847        -6.80597    
   2     -6.70908        -6.20283        -6.59952        -7.10749        -7.37796        -7.56238        -7.55988        -7.42751        -7.23334        -6.89434    
   3     -6.76502        -6.73443        -7.20512        -7.56245        -8.33275        -9.63765        -9.32062        -8.29013        -7.65976        -6.98160    
   4     -6.83446        -6.98087        -7.13469        -7.42532        -7.92610        -8.60582        -8.52115        -8.02234        -7.63101        -7.04437    
   5     -6.90934        -7.01162        -7.05590        -7.14406        -7.28186        -7.42160        -7.45513        -7.39876        -7.31046        -7.09054    
   6     -6.98049        -7.02006        -7.04108        -7.07164        -7.11101        -7.14704        -7.16765        -7.17103        -7.16101        -7.12964    
   7     -7.04646        -7.04204        -7.05562        -7.07243        -7.09150        -7.10781        -7.11832        -7.12262        -7.12291        -7.17130    
   8     -7.12344        -7.10850        -7.12807        -7.14903        -7.16741        -7.17843        -7.18086        -7.17531        -7.16785        -7.22011    
   9     -7.20815        -7.25749        -7.31565        -7.37771        -7.41113        -7.42007        -7.40310        -7.35309        -7.30530        -7.27520    
  10     -7.29469        -7.31551        -7.33485        -7.35107        -7.36128        -7.36548        -7.36362        -7.35565        -7.34437        -7.33138    
1
  HEAD IN LAYER   3 AT END OF TIME STEP   6 IN STRESS PERIOD   31
  ---------------------------------------------------------------------------

                1               2               3               4               5               6               7               8               9              10
 ................................................................................................................................................................
   1     -28.3896        -28.5599        -28.8784        -29.2971        -29.7378        -30.0934        -30.2593        -30.2566        -30.1844        -30.1264    
   2     -28.3878        -28.6486        -29.1627        -29.8996        -30.7730        -31.5522        -31.6354        -31.2357        -30.8282        -30.5939    
   3     -28.0190        -28.4097        -29.2432        -30.6458        -32.8826        -36.4995        -35.6488        -32.9486        -31.4794        -30.8253    
   4     -26.7529        -27.0702        -27.7223        -28.7434        -30.1776        -32.0516        -31.7881        -30.4446        -29.5675        -29.1378    
   5     -24.8593        -25.0353        -25.3752        -25.8475        -26.3831        -26.8387        -26.9304        -26.7477        -26.5319        -26.4002    
   6     -22.8700        -22.9541        -23.1108        -23.3159        -23.5315        -23.7075        -23.7974        -23.8085        -23.7837        -23.7610    
   7     -21.1179        -21.1567        -21.2282        -21.3205        -21.4177        -21.5025        -21.5623        -21.5956        -21.6097        -21.6138    
   8     -19.7528        -19.7713        -19.8055        -19.8502        -19.8984        -19.9435        -19.9803        -20.0065        -20.0226        -20.0301    
   9     -18.8303        -18.8402        -18.8586        -18.8829        -18.9099        -18.9362        -18.9593        -18.9773        -18.9894        -18.9954    
  10     -18.3672        -18.3738        -18.3861        -18.4025        -18.4211        -18.4398        -18.4568        -18.4706        -18.4803        -18.4852    

 HEAD WILL BE SAVED ON UNIT 1023 AT END OF TIME STEP    6, STRESS PERIOD   31


  VOLUME BUDGET FOR ENTIRE MODEL AT END OF TIME STEP    6, STRESS PERIOD  31
  ---------------------------------------------------------------------------------------------------

     CUMULATIVE VOLUME      L**3       RATES FOR THIS TIME STEP      L**3/T          PACKAGE NAME    
     ------------------                 ------------------------                     ----------------

           IN:                                      IN:
           ---                                      ---
              STO-SS =           0.0000                STO-SS =           0.0000     STORAGE                          
      CSUB-CGELASTIC =     2159390.1107        CSUB-CGELASTIC =          64.0337     CSUB                             
        CSUB-ELASTIC =     4637448.0776          CSUB-ELASTIC =           7.6402     CSUB                             
      CSUB-INELASTIC =   239755597.1922        CSUB-INELASTIC =       20003.5645     CSUB                             
      CSUB-WATERCOMP =           0.0000        CSUB-WATERCOMP =           0.0000     CSUB                             
                 WEL =           0.0000                   WEL =           0.0000     WEL_0                            
                RCHA =   266294250.0000                  RCHA =       27000.0000     RCHA_0                           
                 CHD =     3714812.3370                   CHD =         176.6487     CHD_0                            

            TOTAL IN =   516561497.7175              TOTAL IN =       47251.8872

          OUT:                                     OUT:
          ----                                     ----
              STO-SS =           0.0000                STO-SS =           0.0000     STORAGE                          
      CSUB-CGELASTIC =      272965.5610        CSUB-CGELASTIC =           0.0000     CSUB                             
        CSUB-ELASTIC =      967085.3344          CSUB-ELASTIC =           0.0000     CSUB                             
      CSUB-INELASTIC =           0.0000        CSUB-INELASTIC =           0.0000     CSUB                             
      CSUB-WATERCOMP =           0.0000        CSUB-WATERCOMP =           0.0000     CSUB                             
                 WEL =   328725000.0000                   WEL =       30000.0000     WEL_0                            
                RCHA =           0.0000                  RCHA =           0.0000     RCHA_0                           
                 CHD =   186596447.0785                   CHD =       17251.8872     CHD_0                            

           TOTAL OUT =   516561497.9740             TOTAL OUT =       47251.8872

            IN - OUT =          -0.2565              IN - OUT =      -2.5066E-05

 PERCENT DISCREPANCY =          -0.00     PERCENT DISCREPANCY =          -0.00




         TIME SUMMARY AT END OF TIME STEP    6 IN STRESS PERIOD   31
                    SECONDS     MINUTES      HOURS       DAYS        YEARS
                    -----------------------------------------------------------
   TIME STEP LENGTH 9.18555E+06 1.53093E+05  2551.5      106.31     0.29107    
 STRESS PERIOD TIME 3.15576E+07 5.25960E+05  8766.0      365.25      1.0000    
         TOTAL TIME 9.46814E+08 1.57802E+07 2.63004E+05  10958.      30.003    


end timestep


 LARGEST 20 OF 492 INTERBED STRAIN VALUES SHOWN

 CSUB PACKAGE INTERBED STRAIN SUMMARY
 ----------------------------------------------------------------------------------------------------------------------
  INTERBED   INTERBED                         INITIAL       FINAL        TOTAL                    PERCENT              
   NUMBER      TYPE    CELLID                THICKNESS    THICKNESS    COMPACTION  FINAL STRAIN  COMPACTION     FLAG   
 ----------------------------------------------------------------------------------------------------------------------
    418       delay    (3,3,6)               90.007       90.007       1.5018       1.66851E-02  1.6685        *>=1%   
    419       delay    (3,3,7)               90.007       90.007       1.4559       1.61749E-02  1.6175        *>=1%   
    420       delay    (3,3,8)               90.007       90.007       1.3102       1.45562E-02  1.4556        *>=1%   
    417       delay    (3,3,5)               90.007       90.007       1.3067       1.45176E-02  1.4518        *>=1%   
    428       delay    (3,4,6)               90.007       90.007       1.2639       1.40426E-02  1.4043        *>=1%   
    429       delay    (3,4,7)               90.007       90.007       1.2497       1.38844E-02  1.3884        *>=1%   
    409       delay    (3,2,7)               90.007       90.007       1.2379       1.37528E-02  1.3753        *>=1%   
    408       delay    (3,2,6)               90.007       90.007       1.2334       1.37033E-02  1.3703        *>=1%   
    421       delay    (3,3,9)               90.007       90.007       1.2309       1.36754E-02  1.3675        *>=1%   
    410       delay    (3,2,8)               90.007       90.007       1.2163       1.35128E-02  1.3513        *>=1%   
    422       delay    (3,3,10)              90.007       90.007       1.1956       1.32832E-02  1.3283        *>=1%   
    411       delay    (3,2,9)               90.007       90.007       1.1942       1.32683E-02  1.3268        *>=1%   
    407       delay    (3,2,5)               90.007       90.007       1.1914       1.32366E-02  1.3237        *>=1%   
    416       delay    (3,3,4)               90.007       90.007       1.1861       1.31773E-02  1.3177        *>=1%   
    412       delay    (3,2,10)              90.007       90.007       1.1816       1.31278E-02  1.3128        *>=1%   
    430       delay    (3,4,8)               90.007       90.007       1.1772       1.30790E-02  1.3079        *>=1%   
    427       delay    (3,4,5)               90.007       90.007       1.1629       1.29197E-02  1.2920        *>=1%   
    399       delay    (3,1,7)               90.007       90.007       1.1629       1.29196E-02  1.2920        *>=1%   
    400       delay    (3,1,8)               90.007       90.007       1.1627       1.29176E-02  1.2918        *>=1%   
    401       delay    (3,1,9)               90.007       90.007       1.1588       1.28742E-02  1.2874        *>=1%   
 ----------------------------------------------------------------------------------------------------------------------



 PERCENT COMPACTION IS GREATER THAN OR EQUAL TO 1 PERCENT IN 156 OF 492 INTERBED(S).
 USE THE STRAIN_CSV_INTERBED OPTION TO OUTPUT A CSV FILE WITH PERCENT COMPACTION 
 VALUES FOR ALL INTERBEDS.

 COARSE-GRAINED STORAGE PERCENT COMPACTION WAS LESS THAN 1 PERCENT IN ALL CELLS
